1
    SWAT Jun 11 2014    VER 2012/Rev 627                                                                 0/ 0/   0      0: 0: 0

    General Input/Output section (file.cio):                                        
    11/15/2017 12:00:00 AM ARCGIS-SWAT interface AV                                 
                                                                                    
         Number of years in run:    2
         Area of watershed:   106124.000 km2
         Random number generator cycles: 0, use default numbers

         Initial random number seed: wet/dry day prob        748932582
         Initial random number seed: radiation              1948832765
         Initial random number seed: precipitation           857034417
         Initial random number seed: 0.5 hr rainfall          67377721
         Initial random number seed: wind speed              366304404
         Initial random number seed: irrigation             1094585182
         Initial random number seed: relative humidity      1767585417
         Initial random number seed: max temperature         608439319
         Initial random number seed: min temperature         592757081

         Precipitation data used in run:
          Multiple gages read for watershed
             Daily rainfall data used

         Temperature data used in run:
          Multiple gages read for watershed

         PET method used: Penman-Monteith

         Rainfall/Runoff/Routing Option:
          Daily rainfall data
          Runoff estimated with curve number method
          Daily stream routing
           Variable Storage routing method
           Channel dimensions remain constant
           Subbasin algae/CBOD loadings not modeled
           In-stream nutrient transformations modeled using QUAL2E equations

         Subbasin Input Summary:
          Sub Latitude  Elev(m) #HRUs Ponds Elevbnds Wetlnd
            1    36.71   781.64    28                   
            2    36.71   678.08    56                   
            3    36.71   136.58    92                   
            4    36.71   471.80    84                   
            5    36.71   473.43    52                   
            6    36.71   544.07   100                   
            7    36.71   134.20    52                   
            8    36.71   941.69    60                   
            9    36.71   731.07    36                   
           10    36.71   518.13    60                   
           11    36.71   408.07    60                   
           12    36.71   586.65    56                   
           13    36.71   696.61    36                   
           14    36.71   149.94    92                   
           15    36.71   351.18    80                   
           16    36.71   340.91    72                   
           17    36.71   282.12    50                   
           18    36.71   510.37    68                   
           19    36.71   333.76   104                   
           20    36.71   277.71    64                   
           21    36.71   488.21    64                   
           22    36.71   314.82    96                   
           23    36.71   980.66    76                   
           24    36.71   431.53   124                   
           25    36.71   178.04    44                   
           26    36.71   416.43    72                   
           27    36.71   792.12    64                   
           28    36.71   349.04    76                   
           29    36.81   221.25    72                   
           30    36.81  1042.15    56                   
           31    36.81   904.58    48                   
           32    36.81   687.37    64                   
           33    36.81   235.85    56                   
           34    36.81   310.77    76                   
           35    36.81   261.36    84                   
           36    36.81   163.81    96                   
           37    36.81   364.18    72                   
           38    36.81   238.58    84                   
           39    36.81   696.39    72                   
           40    36.81   270.88    48                   
           41    36.81   357.54    96                   
           42    36.81   327.49    76                   
           43    36.81   308.38   124                   
           44    36.81   628.33    48                   
           45    36.81   417.77    56                   
           46    36.81   427.47    48                   
           47    36.81   371.37    84                   
           48    36.81   261.10    68                   
           49    36.81   142.44   104                   
           50    36.81   183.89    92                   
           51    36.81   221.14    96                   
           52    36.81   247.98   104                   
           53    36.81   244.93    92                   
           54    36.81   216.12    76                   
           55    36.81   326.22    84                   

         HRU Input Summary Table 1:
          Sub   HRU   Area(ha) Slope SlpLgth(m) Ovrlnd_N CondII_CN TimeConc(hr) ESCO EPCO
            1      1    1535.16 0.036      91.46    0.369     45.53        1.382 0.82 0.55
            1      2    8344.80 0.118      60.98    0.369     45.53        1.289 0.82 0.55
            1      3      95.05 0.006     121.95    0.369     45.53        2.545 0.82 0.55
            1      4     274.29 0.015     121.95    0.369     45.53        1.954 0.82 0.55
            1      5     286.88 0.006     121.95    0.369     45.53        2.564 0.82 0.55
            1      6     626.40 0.015     121.95    0.369     45.53        1.987 0.82 0.55
            1      7   26952.68 0.143      24.39    0.369     45.53        2.060 0.82 0.55
            1      8    3448.97 0.036      91.46    0.369     45.53        1.524 0.82 0.55
            1      9     223.66 0.037      91.46    0.369     45.53        1.260 0.82 0.55
            1     10   38554.76 0.379       9.15    0.369     45.53        2.463 0.82 0.55
            1     11      10.57 0.007     121.95    0.369     45.53        2.420 0.82 0.55
            1     12      37.31 0.015     121.95    0.369     45.53        1.929 0.82 0.55
            1     13   44143.52 0.342       9.15    0.369     45.53        2.758 0.82 0.55
            1     14     594.60 0.037      91.46    0.369     45.53        1.295 0.82 0.55
            1     15     112.12 0.015     121.95    0.369     45.53        1.938 0.82 0.55
            1     16      68.07 0.005     121.95    0.369     45.53        2.684 0.82 0.55
            1     17     287.30 0.015     121.95    0.369     45.53        1.956 0.82 0.55
            1     18   27388.59 0.231      15.24    0.369     45.53        1.955 0.82 0.55
            1     19    1368.82 0.036      91.46    0.369     45.53        1.369 0.82 0.55
            1     20     150.00 0.005     121.95    0.369     45.53        2.693 0.82 0.55
            1     21     216.02 0.015     121.95    0.369     45.53        1.949 0.82 0.55
            1     22      83.41 0.006     121.95    0.369     45.53        2.543 0.82 0.55
            1     23   10180.68 0.143      24.39    0.369     45.53        1.092 0.82 0.55
            1     24    1234.61 0.036      91.46    0.369     45.53        1.359 0.82 0.55
            1     25     350.61 0.015     121.95    0.369     96.95        1.962 0.82 0.55
            1     26     141.36 0.006     121.95    0.369     96.95        2.550 0.82 0.55
            1     27    1665.70 0.036      91.46    0.369     96.95        1.393 0.82 0.55
            1     28    8136.94 0.136      24.39    0.369     96.95        0.970 0.82 0.55
            2     29      89.24 0.035      91.46    0.404     52.12        1.350 0.89 0.25
            2     30     908.35 0.156      24.39    0.404     52.12        0.569 0.89 0.25
            2     31       8.81 0.005     121.95    0.404     52.12        2.828 0.89 0.25
            2     32      17.63 0.016     121.95    0.404     52.12        1.998 0.89 0.25
            2     33     492.02 0.036      91.46    0.404     52.12        1.423 0.89 0.25
            2     34      85.71 0.015     121.95    0.404     52.12        2.055 0.89 0.25
            2     35    4391.65 0.157      24.39    0.404     52.12        1.120 0.89 0.25
            2     36      35.80 0.006     121.95    0.404     52.12        2.685 0.89 0.25
            2     37     176.70 0.015     121.95    0.404     52.12        2.076 0.89 0.25
            2     38      76.49 0.006     121.95    0.404     52.12        2.695 0.89 0.25
            2     39     371.86 0.033      91.46    0.404     52.12        1.434 0.89 0.25
            2     40     514.66 0.113      60.98    0.404     52.12        0.844 0.89 0.25
            2     41    1491.05 0.036      91.46    0.404     52.12        1.601 0.89 0.25
            2     42     255.16 0.015     121.95    0.404     52.12        2.093 0.89 0.25
            2     43   25571.62 0.200      18.29    0.404     52.12        3.745 0.89 0.25
            2     44     105.94 0.006     121.95    0.404     52.12        2.702 0.89 0.25
            2     45      31.83 0.006     121.95    0.404     52.12        2.684 0.89 0.25
            2     46     381.94 0.037      91.46    0.404     52.12        1.391 0.89 0.25
            2     47      63.55 0.015     121.95    0.404     52.12        2.049 0.89 0.25
            2     48   46810.56 0.381       9.15    0.404     52.12        6.012 0.89 0.25
            2     49     533.74 0.037      91.46    0.404     52.12        1.420 0.89 0.25
            2     50   31638.33 0.297       9.15    0.404     52.12        4.327 0.89 0.25
            2     51      37.27 0.006     121.95    0.404     52.12        2.685 0.89 0.25
            2     52      89.56 0.016     121.95    0.404     52.12        2.017 0.89 0.25
            2     53     293.53 0.036      91.46    0.404     52.12        1.384 0.89 0.25
            2     54      16.82 0.007     121.95    0.404     52.12        2.559 0.89 0.25
            2     55      44.52 0.015     121.95    0.404     52.12        2.045 0.89 0.25
            2     56   35668.32 0.362       9.15    0.404     52.12        4.776 0.89 0.25
            2     57     312.95 0.036      91.46    0.404     52.12        1.388 0.89 0.25
            2     58      50.61 0.005     121.95    0.404     52.12        2.839 0.89 0.25
            2     59      65.11 0.015     121.95    0.404     52.12        2.050 0.89 0.25
            2     60   19901.89 0.355       9.15    0.404     52.12        2.934 0.89 0.25
            2     61    1686.61 0.179      18.29    0.404     52.12        0.629 0.89 0.25
            2     62     159.30 0.036      91.46    0.404     52.12        1.355 0.89 0.25
            2     63      10.55 0.006     121.95    0.404     52.12        2.678 0.89 0.25
            2     64      29.19 0.015     121.95    0.404     52.12        2.041 0.89 0.25
            2     65      79.52 0.016     121.95    0.404     52.12        2.014 0.89 0.25
            2     66     423.05 0.037      91.46    0.404     52.12        1.399 0.89 0.25
            2     67    6776.88 0.197      18.29    0.404     52.12        1.379 0.89 0.25
            2     68      45.65 0.006     121.95    0.404     52.12        2.688 0.89 0.25
            2     69      94.04 0.036      91.46    0.404     52.12        1.340 0.89 0.25
            2     70      11.51 0.007     121.95    0.404     52.12        2.557 0.89 0.25
            2     71      25.92 0.015     121.95    0.404     52.12        2.040 0.89 0.25
            2     72    1727.46 0.241      15.24    0.404     52.12        0.580 0.89 0.25
            2     73      27.55 0.015     121.95    0.404     97.08        2.040 0.89 0.25
            2     74      96.90 0.036      91.46    0.404     97.08        1.341 0.89 0.25
            2     75      11.94 0.005     121.95    0.404     97.08        2.829 0.89 0.25
            2     76    1132.17 0.245      15.24    0.404     97.08        0.478 0.89 0.25
            2     77    3947.22 0.200      15.24    0.404     97.08        0.940 0.89 0.25
            2     78      70.85 0.016     121.95    0.404     97.08        2.012 0.89 0.25
            2     79      32.36 0.006     121.95    0.404     97.08        2.684 0.89 0.25
            2     80     378.00 0.036      91.46    0.404     97.08        1.401 0.89 0.25
            2     81      42.15 0.016     121.95    0.404     97.08        2.005 0.89 0.25
            2     82    1486.10 0.201      15.24    0.404     97.08        0.554 0.89 0.25
            2     83     220.19 0.036      91.46    0.404     97.08        1.368 0.89 0.25
            2     84      18.42 0.006     121.95    0.404     97.08        2.680 0.89 0.25
            3     85     575.94 0.014     121.95    0.443     73.51        2.297 0.36 0.74
            3     86     556.66 0.031      91.46    0.443     73.51        1.555 0.36 0.74
            3     87     193.71 0.077      60.98    0.443     73.51        0.908 0.36 0.74
            3     88    1075.05 0.005     121.95    0.443     73.51        3.167 0.36 0.74
            3     89     410.47 0.069      60.98    0.443     73.51        0.974 0.36 0.74
            3     90    1106.94 0.007     121.95    0.443     73.51        2.885 0.36 0.74
            3     91    1516.73 0.015     121.95    0.443     73.51        2.393 0.36 0.74
            3     92    1587.59 0.031      91.46    0.443     73.51        1.709 0.36 0.74
            3     93    1564.93 0.078      60.98    0.443     73.51        1.116 0.36 0.74
            3     94     310.84 0.007     121.95    0.443     73.51        2.760 0.36 0.74
            3     95     683.44 0.015     121.95    0.443     73.51        2.269 0.36 0.74
            3     96    1963.85 0.034      91.46    0.443     73.51        1.722 0.36 0.74
            3     97    1914.03 0.074      60.98    0.443     73.51        1.179 0.36 0.74
            3     98    3931.10 0.033      91.46    0.443     73.51        1.992 0.36 0.74
            3     99    1487.64 0.006     121.95    0.443     73.51        3.068 0.36 0.74
            3    100    2289.82 0.015     121.95    0.443     73.51        2.499 0.36 0.74
            3    101    6586.67 0.035      91.46    0.443     73.51        2.290 0.36 0.74
            3    102    1910.94 0.015     121.95    0.443     73.51        2.448 0.36 0.74
            3    103    7490.56 0.082      60.98    0.443     73.51        1.845 0.36 0.74
            3    104     828.67 0.006     121.95    0.443     73.51        2.971 0.36 0.74
            3    105    2225.41 0.005     121.95    0.443     73.51        3.329 0.36 0.74
            3    106     666.24 0.030      91.46    0.443     73.51        1.587 0.36 0.74
            3    107     171.18 0.078      60.98    0.443     73.51        0.900 0.36 0.74
            3    108     892.55 0.014     121.95    0.443     73.51        2.346 0.36 0.74
            3    109     595.21 0.067      60.98    0.443     73.51        1.013 0.36 0.74
            3    110    3081.15 0.031      91.46    0.443     73.51        1.910 0.36 0.74
            3    111    2553.45 0.006     121.95    0.443     73.51        3.214 0.36 0.74
            3    112    3334.03 0.014     121.95    0.443     73.51        2.682 0.36 0.74
            3    113     560.74 0.006     121.95    0.443     73.51        2.929 0.36 0.74
            3    114    2236.20 0.034      91.46    0.443     73.51        1.759 0.36 0.74
            3    115    1431.06 0.077      60.98    0.443     73.51        1.101 0.36 0.74
            3    116    1032.92 0.015     121.95    0.443     73.51        2.323 0.36 0.74
            3    117     433.09 0.030      91.46    0.443     73.51        1.549 0.36 0.74
            3    118     663.59 0.014     121.95    0.443     73.51        2.311 0.36 0.74
            3    119    1306.22 0.005     121.95    0.443     73.51        3.201 0.36 0.74
            3    120      87.56 0.085      60.98    0.443     73.51        0.862 0.36 0.74
            3    121    2568.61 0.030      91.46    0.443     73.51        1.857 0.36 0.74
            3    122    3052.75 0.014     121.95    0.443     73.51        2.645 0.36 0.74
            3    123    2561.37 0.006     121.95    0.443     73.51        3.215 0.36 0.74
            3    124     280.36 0.064      60.98    0.443     73.51        0.973 0.36 0.74
            3    125    1342.96 0.034      91.46    0.443     73.51        1.634 0.36 0.74
            3    126     847.01 0.079      60.98    0.443     73.51        1.008 0.36 0.74
            3    127     629.62 0.015     121.95    0.443     73.51        2.261 0.36 0.74
            3    128     351.30 0.006     121.95    0.443     73.51        2.894 0.36 0.74
            3    129     926.62 0.014     121.95    0.443     73.51        2.352 0.36 0.74
            3    130    2472.97 0.004     121.95    0.443     73.51        3.569 0.36 0.74
            3    131     690.73 0.030      91.46    0.443     73.51        1.591 0.36 0.74
            3    132     168.46 0.075      60.98    0.443     73.51        0.910 0.36 0.74
            3    133     700.72 0.069      60.98    0.443     73.51        1.021 0.36 0.74
            3    134    2058.45 0.015     121.95    0.443     73.51        2.468 0.36 0.74
            3    135    2492.46 0.032      91.46    0.443     73.51        1.819 0.36 0.74
            3    136    1507.89 0.006     121.95    0.443     73.51        3.071 0.36 0.74
            3    137     451.26 0.007     121.95    0.443     73.51        2.783 0.36 0.74
            3    138    1002.22 0.015     121.95    0.443     73.51        2.318 0.36 0.74
            3    139    2653.15 0.034      91.46    0.443     73.51        1.814 0.36 0.74
            3    140    1988.38 0.078      60.98    0.443     73.51        1.175 0.36 0.74
            3    141    2232.92 0.105      60.98    0.443     73.51        1.135 0.36 0.74
            3    142    1880.35 0.032      91.46    0.443     73.51        1.736 0.36 0.74
            3    143    1940.21 0.014     121.95    0.443     73.51        2.497 0.36 0.74
            3    144    5322.28 0.004     121.95    0.443     73.51        3.929 0.36 0.74
            3    145    4511.93 0.004     121.95    0.443     73.51        3.830 0.36 0.74
            3    146    1242.27 0.014     121.95    0.443     73.51        2.398 0.36 0.74
            3    147    1461.47 0.032      91.46    0.443     73.51        1.677 0.36 0.74
            3    148    1317.25 0.091      60.98    0.443     73.51        1.042 0.36 0.74
            3    149    4301.27 0.034      91.46    0.443     73.51        2.025 0.36 0.74
            3    150    4220.32 0.083      60.98    0.443     73.51        1.450 0.36 0.74
            3    151    1774.53 0.006     121.95    0.443     73.51        3.108 0.36 0.74
            3    152    2513.93 0.015     121.95    0.443     73.51        2.529 0.36 0.74
            3    153    1925.22 0.015     121.95    0.443     73.51        2.450 0.36 0.74
            3    154    8801.13 0.036      91.46    0.443     73.51        2.535 0.36 0.74
            3    155   23180.90 0.096      60.98    0.443     73.51        3.484 0.36 0.74
            3    156     967.86 0.006     121.95    0.443     73.51        2.992 0.36 0.74
            3    157     389.32 0.014     121.95    0.443     73.51        2.267 0.36 0.74
            3    158      30.89 0.113      60.98    0.443     73.51        0.781 0.36 0.74
            3    159     188.42 0.028      91.46    0.443     73.51        1.538 0.36 0.74
            3    160    2739.78 0.003     121.95    0.443     73.51        3.892 0.36 0.74
            3    161     425.79 0.004     121.95    0.443     73.51        3.273 0.36 0.74
            3    162     198.47 0.096      60.98    0.443     73.51        0.853 0.36 0.74
            3    163     212.04 0.032      91.46    0.443     73.51        1.483 0.36 0.74
            3    164     183.94 0.014     121.95    0.443     73.51        2.231 0.36 0.74
            3    165     814.14 0.004     121.95    0.443     73.51        3.334 0.36 0.74
            3    166     174.13 0.033      91.46    0.443     73.51        1.463 0.36 0.74
            3    167     115.60 0.078      60.98    0.443     73.51        0.890 0.36 0.74
            3    168     140.20 0.014     121.95    0.443     73.51        2.222 0.36 0.74
            3    169     811.22 0.072      60.98    0.443     97.51        1.027 0.36 0.74
            3    170    2039.70 0.015     121.95    0.443     97.51        2.466 0.36 0.74
            3    171    1464.61 0.006     121.95    0.443     97.51        3.065 0.36 0.74
            3    172    2335.15 0.032      91.46    0.443     97.51        1.798 0.36 0.74
            3    173    2423.92 0.035      91.46    0.443     97.51        1.772 0.36 0.74
            3    174    2393.17 0.082      60.98    0.443     97.51        1.217 0.36 0.74
            3    175     947.41 0.015     121.95    0.443     97.51        2.310 0.36 0.74
            3    176     453.69 0.007     121.95    0.443     97.51        2.784 0.36 0.74
            4    177    3635.43 0.134      24.39    0.369     45.53        0.759 0.82 0.55
            4    178      32.06 0.007     121.95    0.369     45.53        2.424 0.82 0.55
            4    179     584.24 0.037      91.46    0.369     45.53        1.311 0.82 0.55
            4    180      98.07 0.016     121.95    0.369     45.53        1.903 0.82 0.55
            4    181    3451.51 0.157      24.39    0.369     45.53        0.724 0.82 0.55
            4    182     145.69 0.006     121.95    0.369     45.53        2.555 0.82 0.55
            4    183     202.17 0.015     121.95    0.369     45.53        1.954 0.82 0.55
            4    184     558.75 0.035      91.46    0.369     45.53        1.329 0.82 0.55
            4    185    2038.96 0.211      15.24    0.369     45.53        0.479 0.82 0.55
            4    186     114.75 0.036      91.46    0.369     45.53        1.263 0.82 0.55
            4    187      15.87 0.004     121.95    0.369     45.53        2.863 0.82 0.55
            4    188      24.75 0.015     121.95    0.369     45.53        1.929 0.82 0.55
            4    189    2421.16 0.212      15.24    0.369     45.53        0.515 0.82 0.55
            4    190      19.73 0.016     121.95    0.369     45.53        1.891 0.82 0.55
            4    191       7.00 0.006     121.95    0.369     45.53        2.534 0.82 0.55
            4    192     121.29 0.037      91.46    0.369     45.53        1.254 0.82 0.55
            4    193       0.47 0.007     121.95    0.369     45.53        2.418 0.82 0.55
            4    194       1.17 0.014     121.95    0.369     45.53        1.964 0.82 0.55
            4    195      11.21 0.038      91.46    0.369     45.53        1.227 0.82 0.55
            4    196    1834.79 0.356       9.15    0.369     45.53        0.366 0.82 0.55
            4    197    6011.58 0.256       9.15    0.369     45.53        0.762 0.82 0.55
            4    198     272.93 0.036      91.46    0.369     45.53        1.284 0.82 0.55
            4    199      70.51 0.015     121.95    0.369     45.53        1.936 0.82 0.55
            4    200      57.79 0.005     121.95    0.369     45.53        2.685 0.82 0.55
            4    201       4.09 0.016     121.95    0.369     45.53        1.888 0.82 0.55
            4    202      26.03 0.038      91.46    0.369     45.53        1.230 0.82 0.55
            4    203       1.75 0.007     121.95    0.369     45.53        2.419 0.82 0.55
            4    204    2277.11 0.346       9.15    0.369     45.53        0.410 0.82 0.55
            4    205    1460.57 0.127      24.39    0.369     45.53        0.557 0.82 0.55
            4    206      11.49 0.007     121.95    0.369     45.53        2.421 0.82 0.55
            4    207      41.20 0.016     121.95    0.369     45.53        1.894 0.82 0.55
            4    208     248.47 0.037      91.46    0.369     45.53        1.271 0.82 0.55
            4    209     821.66 0.162      18.29    0.369     45.53        0.405 0.82 0.55
            4    210     130.47 0.034      91.46    0.369     45.53        1.287 0.82 0.55
            4    211      48.07 0.004     121.95    0.369     45.53        2.869 0.82 0.55
            4    212      55.50 0.015     121.95    0.369     45.53        1.934 0.82 0.55
            4    213     314.06 0.152      24.39    0.369     51.30        0.410 0.82 0.55
            4    214       7.81 0.016     121.95    0.369     51.30        1.889 0.82 0.55
            4    215      33.63 0.037      91.46    0.369     51.30        1.241 0.82 0.55
            4    216       8.53 0.003     121.95    0.369     51.30        3.120 0.82 0.55
            4    217      99.24 0.036      91.46    0.369     51.30        1.261 0.82 0.55
            4    218      24.63 0.015     121.95    0.369     51.30        1.929 0.82 0.55
            4    219       9.00 0.006     121.95    0.369     51.30        2.535 0.82 0.55
            4    220     761.71 0.146      24.39    0.369     51.30        0.467 0.82 0.55
            4    221     116.29 0.034      91.46    0.369     51.30        1.285 0.82 0.55
            4    222     644.47 0.170      18.29    0.369     51.30        0.381 0.82 0.55
            4    223      35.29 0.005     121.95    0.369     51.30        2.681 0.82 0.55
            4    224      39.55 0.015     121.95    0.369     51.30        1.931 0.82 0.55
            4    225       9.01 0.006     121.95    0.369     65.47        2.535 0.82 0.55
            4    226     130.45 0.036      91.46    0.369     65.47        1.266 0.82 0.55
            4    227      25.58 0.015     121.95    0.369     65.47        1.929 0.82 0.55
            4    228     621.91 0.129      24.39    0.369     65.47        0.465 0.82 0.55
            4    229     411.71 0.148      24.39    0.369     65.47        0.425 0.82 0.55
            4    230      48.82 0.006     121.95    0.369     65.47        2.541 0.82 0.55
            4    231      98.54 0.035      91.46    0.369     65.47        1.272 0.82 0.55
            4    232      45.04 0.015     121.95    0.369     65.47        1.932 0.82 0.55
            4    233     111.99 0.015     121.95    0.369     65.47        1.942 0.82 0.55
            4    234     214.20 0.115      60.98    0.369     65.47        0.721 0.82 0.55
            4    235     193.18 0.032      91.46    0.369     65.47        1.319 0.82 0.55
            4    236      69.73 0.006     121.95    0.369     65.47        2.544 0.82 0.55
            4    237      31.48 0.035      91.46    0.369     77.01        1.261 0.82 0.55
            4    238      10.14 0.015     121.95    0.369     77.01        1.926 0.82 0.55
            4    239       5.65 0.007     121.95    0.369     77.01        2.419 0.82 0.55
            4    240     110.03 0.118      60.98    0.369     77.01        0.701 0.82 0.55
            4    241      65.96 0.005     121.95    0.369     77.01        2.686 0.82 0.55
            4    242     175.88 0.133      24.39    0.369     77.01        0.407 0.82 0.55
            4    243      83.35 0.033      91.46    0.369     77.01        1.292 0.82 0.55
            4    244      48.77 0.015     121.95    0.369     77.01        1.933 0.82 0.55
            4    245      87.19 0.103      60.98    0.369     77.01        0.727 0.82 0.55
            4    246     115.69 0.032      91.46    0.369     77.01        1.308 0.82 0.55
            4    247      61.04 0.006     121.95    0.369     77.01        2.543 0.82 0.55
            4    248      81.00 0.015     121.95    0.369     77.01        1.937 0.82 0.55
            4    249      11.95 0.004     121.95    0.369     96.95        2.863 0.82 0.55
            4    250     881.98 0.160      18.29    0.369     96.95        0.413 0.82 0.55
            4    251      93.07 0.037      91.46    0.369     96.95        1.250 0.82 0.55
            4    252      15.63 0.015     121.95    0.369     96.95        1.927 0.82 0.55
            4    253    2109.82 0.150      24.39    0.369     96.95        0.603 0.82 0.55
            4    254      49.52 0.015     121.95    0.369     96.95        1.933 0.82 0.55
            4    255      16.55 0.007     121.95    0.369     96.95        2.421 0.82 0.55
            4    256     299.32 0.036      91.46    0.369     96.95        1.288 0.82 0.55
            4    257    1958.96 0.175      18.29    0.369     96.95        0.516 0.82 0.55
            4    258     358.95 0.035      91.46    0.369     96.95        1.306 0.82 0.55
            4    259     143.51 0.015     121.95    0.369     96.95        1.946 0.82 0.55
            4    260     125.13 0.005     121.95    0.369     96.95        2.695 0.82 0.55
            5    261      30.23 0.016     121.95    0.369     45.53        1.895 0.82 0.55
            5    262    1745.01 0.150      24.39    0.369     45.53        0.639 0.82 0.55
            5    263     187.72 0.037      91.46    0.369     45.53        1.273 0.82 0.55
            5    264      11.45 0.007     121.95    0.369     45.53        2.421 0.82 0.55
            5    265    2810.22 0.132      24.39    0.369     45.53        0.793 0.82 0.55
            5    266      90.25 0.015     121.95    0.369     45.53        1.944 0.82 0.55
            5    267      39.88 0.006     121.95    0.369     45.53        2.542 0.82 0.55
            5    268     470.14 0.036      91.46    0.369     45.53        1.331 0.82 0.55
            5    269      14.98 0.015     121.95    0.369     45.53        1.928 0.82 0.55
            5    270      12.13 0.005     121.95    0.369     45.53        2.678 0.82 0.55
            5    271    2009.47 0.219      15.24    0.369     45.53        0.554 0.82 0.55
            5    272      84.20 0.037      91.46    0.369     45.53        1.254 0.82 0.55
            5    273      12.66 0.006     121.95    0.369     45.53        2.536 0.82 0.55
            5    274     138.96 0.036      91.46    0.369     45.53        1.275 0.82 0.55
            5    275      29.54 0.015     121.95    0.369     45.53        1.932 0.82 0.55
            5    276    1800.56 0.194      18.29    0.369     45.53        0.565 0.82 0.55
            5    277     531.25 0.250      15.24    0.369     45.53        0.333 0.82 0.55
            5    278       1.06 0.005     121.95    0.369     45.53        2.675 0.82 0.55
            5    279       1.48 0.015     121.95    0.369     45.53        1.924 0.82 0.55
            5    280      11.61 0.039      91.46    0.369     45.53        1.219 0.82 0.55
            5    281       2.38 0.006     121.95    0.369     45.53        2.533 0.82 0.55
            5    282       7.86 0.016     121.95    0.369     45.53        1.889 0.82 0.55
            5    283      58.77 0.037      91.46    0.369     45.53        1.249 0.82 0.55
            5    284     624.79 0.149      24.39    0.369     45.53        0.478 0.82 0.55
            5    285      11.38 0.007     121.95    0.369     45.53        2.421 0.82 0.55
            5    286      33.00 0.016     121.95    0.369     45.53        1.895 0.82 0.55
            5    287     877.86 0.126      24.39    0.369     45.53        0.536 0.82 0.55
            5    288     169.47 0.036      91.46    0.369     45.53        1.280 0.82 0.55
            5    289       3.00 0.005     121.95    0.369     51.30        2.676 0.82 0.55
            5    290       6.88 0.015     121.95    0.369     51.30        1.926 0.82 0.55
            5    291      33.06 0.036      91.46    0.369     51.30        1.253 0.82 0.55
            5    292     303.99 0.146      24.39    0.369     51.30        0.429 0.82 0.55
            5    293      15.64 0.015     121.95    0.369     51.30        1.928 0.82 0.55
            5    294     448.67 0.134      24.39    0.369     51.30        0.462 0.82 0.55
            5    295      85.10 0.036      91.46    0.369     51.30        1.264 0.82 0.55
            5    296       9.10 0.006     121.95    0.369     51.30        2.535 0.82 0.55
            5    297       2.88 0.017     121.95    0.369     65.47        1.854 0.82 0.55
            5    298       1.07 0.006     121.95    0.369     65.47        2.533 0.82 0.55
            5    299     124.81 0.137      24.39    0.369     65.47        0.404 0.82 0.55
            5    300      14.91 0.037      91.46    0.369     65.47        1.239 0.82 0.55
            5    301      11.61 0.015     121.95    0.369     65.47        1.927 0.82 0.55
            5    302     248.03 0.116      60.98    0.369     65.47        0.736 0.82 0.55
            5    303      57.61 0.037      91.46    0.369     65.47        1.248 0.82 0.55
            5    304       5.43 0.005     121.95    0.369     65.47        2.677 0.82 0.55
            5    305       9.66 0.005     121.95    0.369     96.95        2.678 0.82 0.55
            5    306    1127.19 0.155      24.39    0.369     96.95        0.549 0.82 0.55
            5    307     125.05 0.036      91.46    0.369     96.95        1.272 0.82 0.55
            5    308      21.60 0.015     121.95    0.369     96.95        1.930 0.82 0.55
            5    309      28.77 0.006     121.95    0.369     96.95        2.540 0.82 0.55
            5    310    1511.25 0.135      24.39    0.369     96.95        0.618 0.82 0.55
            5    311     268.01 0.036      91.46    0.369     96.95        1.298 0.82 0.55
            5    312      57.53 0.015     121.95    0.369     96.95        1.938 0.82 0.55
            6    313     135.04 0.016     121.95    0.369     45.53        1.913 0.82 0.55
            6    314     760.62 0.036      91.46    0.369     45.53        1.364 0.82 0.55
            6    315    4395.26 0.129      24.39    0.369     45.53        0.939 0.82 0.55
            6    316      47.31 0.006     121.95    0.369     45.53        2.543 0.82 0.55
            6    317     871.95 0.036      91.46    0.369     45.53        1.380 0.82 0.55
            6    318    4655.15 0.121      24.39    0.369     45.53        0.975 0.82 0.55
            6    319     160.36 0.015     121.95    0.369     45.53        1.954 0.82 0.55
            6    320      71.39 0.006     121.95    0.369     45.53        2.548 0.82 0.55
            6    321    2063.87 0.167      18.29    0.369     45.53        0.585 0.82 0.55
            6    322     364.83 0.036      91.46    0.369     45.53        1.308 0.82 0.55
            6    323      57.26 0.005     121.95    0.369     45.53        2.687 0.82 0.55
            6    324      84.42 0.015     121.95    0.369     45.53        1.941 0.82 0.55
            6    325    4991.71 0.145      24.39    0.369     45.53        0.991 0.82 0.55
            6    326      44.97 0.005     121.95    0.369     45.53        2.685 0.82 0.55
            6    327     570.77 0.037      91.46    0.369     45.53        1.328 0.82 0.55
            6    328      99.65 0.015     121.95    0.369     45.53        1.944 0.82 0.55
            6    329      70.46 0.004     121.95    0.369     45.53        2.875 0.82 0.55
            6    330   18408.13 0.353       9.15    0.369     45.53        2.100 0.82 0.55
            6    331     396.49 0.037      91.46    0.369     45.53        1.302 0.82 0.55
            6    332      76.77 0.015     121.95    0.369     45.53        1.940 0.82 0.55
            6    333       1.29 0.007     121.95    0.369     45.53        2.419 0.82 0.55
            6    334      54.38 0.038      91.46    0.369     45.53        1.237 0.82 0.55
            6    335    6450.21 0.350       9.15    0.369     45.53        0.934 0.82 0.55
            6    336       5.45 0.016     121.95    0.369     45.53        1.889 0.82 0.55
            6    337    6354.49 0.216      15.24    0.369     45.53        1.014 0.82 0.55
            6    338      57.40 0.015     121.95    0.369     45.53        1.936 0.82 0.55
            6    339     313.69 0.037      91.46    0.369     45.53        1.290 0.82 0.55
            6    340      29.56 0.006     121.95    0.369     45.53        2.540 0.82 0.55
            6    341    1278.10 0.127      24.39    0.369     45.53        0.574 0.82 0.55
            6    342      35.08 0.015     121.95    0.369     45.53        1.932 0.82 0.55
            6    343      13.18 0.006     121.95    0.369     45.53        2.536 0.82 0.55
            6    344     209.82 0.037      91.46    0.369     45.53        1.273 0.82 0.55
            6    345      11.66 0.006     121.95    0.369     45.53        2.536 0.82 0.55
            6    346      24.51 0.016     121.95    0.369     45.53        1.893 0.82 0.55
            6    347     127.13 0.036      91.46    0.369     45.53        1.270 0.82 0.55
            6    348     616.83 0.120      60.98    0.369     45.53        0.780 0.82 0.55
            6    349      61.23 0.016     121.95    0.369     45.53        1.900 0.82 0.55
            6    350      25.49 0.006     121.95    0.369     45.53        2.539 0.82 0.55
            6    351    1640.98 0.121      24.39    0.369     45.53        0.626 0.82 0.55
            6    352     329.99 0.036      91.46    0.369     45.53        1.302 0.82 0.55
            6    353     110.36 0.036      91.46    0.369     45.53        1.267 0.82 0.55
            6    354     595.26 0.157      24.39    0.369     45.53        0.459 0.82 0.55
            6    355      21.79 0.005     121.95    0.369     45.53        2.680 0.82 0.55
            6    356      22.01 0.015     121.95    0.369     45.53        1.929 0.82 0.55
            6    357     146.53 0.037      91.46    0.369     45.53        1.263 0.82 0.55
            6    358      12.86 0.006     121.95    0.369     45.53        2.536 0.82 0.55
            6    359    1453.50 0.150      24.39    0.369     45.53        0.578 0.82 0.55
            6    360      29.19 0.015     121.95    0.369     45.53        1.931 0.82 0.55
            6    361       2.90 0.007     121.95    0.369     51.30        2.419 0.82 0.55
            6    362       9.05 0.015     121.95    0.369     51.30        1.926 0.82 0.55
            6    363      49.37 0.037      91.46    0.369     51.30        1.246 0.82 0.55
            6    364     279.12 0.133      24.39    0.369     51.30        0.430 0.82 0.55
            6    365      11.61 0.015     121.95    0.369     51.30        1.927 0.82 0.55
            6    366     346.24 0.123      24.39    0.369     51.30        0.450 0.82 0.55
            6    367      70.93 0.036      91.46    0.369     51.30        1.260 0.82 0.55
            6    368       7.15 0.005     121.95    0.369     51.30        2.677 0.82 0.55
            6    369       7.71 0.016     121.95    0.369     51.30        1.889 0.82 0.55
            6    370       5.25 0.005     121.95    0.369     51.30        2.676 0.82 0.55
            6    371      31.61 0.035      91.46    0.369     51.30        1.263 0.82 0.55
            6    372     370.25 0.264       9.15    0.369     51.30        0.236 0.82 0.55
            6    373      25.24 0.015     121.95    0.369     51.30        1.930 0.82 0.55
            6    374     142.97 0.036      91.46    0.369     51.30        1.273 0.82 0.55
            6    375     588.94 0.124      24.39    0.369     51.30        0.484 0.82 0.55
            6    376       9.16 0.007     121.95    0.369     51.30        2.421 0.82 0.55
            6    377     163.63 0.036      91.46    0.369     51.30        1.276 0.82 0.55
            6    378     766.19 0.127      24.39    0.369     51.30        0.506 0.82 0.55
            6    379      29.93 0.015     121.95    0.369     51.30        1.931 0.82 0.55
            6    380      13.29 0.006     121.95    0.369     51.30        2.536 0.82 0.55
            6    381      62.85 0.037      91.46    0.369     65.47        1.248 0.82 0.55
            6    382       4.61 0.005     121.95    0.369     65.47        2.676 0.82 0.55
            6    383       8.96 0.015     121.95    0.369     65.47        1.926 0.82 0.55
            6    384     236.93 0.107      60.98    0.369     65.47        0.747 0.82 0.55
            6    385     510.61 0.104      60.98    0.369     65.47        0.794 0.82 0.55
            6    386     205.45 0.035      91.46    0.369     65.47        1.294 0.82 0.55
            6    387      47.36 0.015     121.95    0.369     65.47        1.934 0.82 0.55
            6    388      19.97 0.006     121.95    0.369     65.47        2.537 0.82 0.55
            6    389      18.82 0.006     121.95    0.369     65.47        2.537 0.82 0.55
            6    390      41.48 0.015     121.95    0.369     65.47        1.933 0.82 0.55
            6    391     196.62 0.035      91.46    0.369     65.47        1.292 0.82 0.55
            6    392     646.55 0.114      60.98    0.369     65.47        0.794 0.82 0.55
            6    393      17.72 0.006     121.95    0.369     96.95        2.537 0.82 0.55
            6    394     228.21 0.036      91.46    0.369     96.95        1.287 0.82 0.55
            6    395    1199.04 0.138      24.39    0.369     96.95        0.554 0.82 0.55
            6    396      48.76 0.016     121.95    0.369     96.95        1.898 0.82 0.55
            6    397      54.06 0.015     121.95    0.369     96.95        1.936 0.82 0.55
            6    398      24.72 0.006     121.95    0.369     96.95        2.539 0.82 0.55
            6    399     290.28 0.037      91.46    0.369     96.95        1.286 0.82 0.55
            6    400    1559.63 0.130      24.39    0.369     96.95        0.607 0.82 0.55
            6    401      33.18 0.015     121.95    0.369     96.95        1.932 0.82 0.55
            6    402    1194.42 0.232      15.24    0.369     96.95        0.420 0.82 0.55
            6    403     149.43 0.036      91.46    0.369     96.95        1.274 0.82 0.55
            6    404      19.30 0.005     121.95    0.369     96.95        2.680 0.82 0.55
            6    405      59.82 0.015     121.95    0.369     96.95        1.937 0.82 0.55
            6    406      27.43 0.005     121.95    0.369     96.95        2.681 0.82 0.55
            6    407     304.05 0.036      91.46    0.369     96.95        1.299 0.82 0.55
            6    408    1572.95 0.130      24.39    0.369     96.95        0.609 0.82 0.55
            6    409     449.52 0.036      91.46    0.369     96.95        1.320 0.82 0.55
            6    410      87.81 0.015     121.95    0.369     96.95        1.942 0.82 0.55
            6    411    2492.10 0.133      24.39    0.369     96.95        0.718 0.82 0.55
            6    412      41.19 0.006     121.95    0.369     96.95        2.542 0.82 0.55
            7    413     364.36 0.015     121.95    0.419     77.95        2.161 0.72 0.17
            7    414     454.01 0.081      60.98    0.419     77.95        0.928 0.72 0.17
            7    415     214.89 0.006     121.95    0.419     77.95        2.786 0.72 0.17
            7    416     681.17 0.033      91.46    0.419     77.95        1.525 0.72 0.17
            7    417    3915.07 0.087      60.98    0.419     77.95        1.482 0.72 0.17
            7    418    2743.41 0.035      91.46    0.419     77.95        1.848 0.72 0.17
            7    419     408.37 0.007     121.95    0.419     77.95        2.703 0.72 0.17
            7    420     831.97 0.015     121.95    0.419     77.95        2.250 0.72 0.17
            7    421     170.41 0.077      60.98    0.419     77.95        0.882 0.72 0.17
            7    422     612.66 0.015     121.95    0.419     77.95        2.209 0.72 0.17
            7    423     500.54 0.006     121.95    0.419     77.95        2.845 0.72 0.17
            7    424     645.59 0.031      91.46    0.419     77.95        1.544 0.72 0.17
            7    425     181.28 0.007     121.95    0.419     77.95        2.655 0.72 0.17
            7    426     893.39 0.034      91.46    0.419     77.95        1.552 0.72 0.17
            7    427     638.02 0.079      60.98    0.419     77.95        0.970 0.72 0.17
            7    428     387.75 0.015     121.95    0.419     77.95        2.165 0.72 0.17
            7    429     456.00 0.015     121.95    0.419     77.95        2.179 0.72 0.17
            7    430     338.09 0.006     121.95    0.419     77.95        2.812 0.72 0.17
            7    431     549.58 0.032      91.46    0.419     77.95        1.513 0.72 0.17
            7    432     172.81 0.078      60.98    0.419     77.95        0.879 0.72 0.17
            7    433     125.44 0.006     121.95    0.419     77.95        2.766 0.72 0.17
            7    434     735.72 0.086      60.98    0.419     77.95        0.967 0.72 0.17
            7    435     275.80 0.015     121.95    0.419     77.95        2.142 0.72 0.17
            7    436     701.52 0.034      91.46    0.419     77.95        1.516 0.72 0.17
            7    437   32234.48 0.107      60.98    0.419     77.95        5.021 0.72 0.17
            7    438    8200.78 0.036      91.46    0.419     77.95        2.630 0.72 0.17
            7    439     827.01 0.006     121.95    0.419     77.95        2.906 0.72 0.17
            7    440    1829.40 0.015     121.95    0.419     77.95        2.422 0.72 0.17
            7    441     114.40 0.006     121.95    0.419     77.95        2.764 0.72 0.17
            7    442    1747.82 0.036      91.46    0.419     77.95        1.676 0.72 0.17
            7    443     335.86 0.016     121.95    0.419     77.95        2.115 0.72 0.17
            7    444   14005.50 0.137      24.39    0.419     77.95        2.462 0.72 0.17
            7    445     421.40 0.015     121.95    0.419     77.95        2.172 0.72 0.17
            7    446    1913.33 0.036      91.46    0.419     77.95        1.704 0.72 0.17
            7    447     150.81 0.006     121.95    0.419     77.95        2.772 0.72 0.17
            7    448   16463.05 0.147      24.39    0.419     77.95        2.766 0.72 0.17
            7    449     367.34 0.014     121.95    0.419     77.95        2.205 0.72 0.17
            7    450   20570.34 0.000     121.95    0.419     77.95       12.211 0.72 0.17
            7    451     393.35 0.032      91.46    0.419     77.95        1.482 0.72 0.17
            7    452     546.46 0.129      24.39    0.419     77.95        0.535 0.72 0.17
            7    453    3962.60 0.000     121.95    0.419     77.95       10.016 0.72 0.17
            7    454      86.31 0.034      91.46    0.419     77.95        1.391 0.72 0.17
            7    455     125.61 0.139      24.39    0.419     77.95        0.439 0.72 0.17
            7    456      58.81 0.014     121.95    0.419     77.95        2.137 0.72 0.17
            7    457     334.01 0.032      91.46    0.419     97.60        1.470 0.72 0.17
            7    458     242.24 0.015     121.95    0.419     97.60        2.135 0.72 0.17
            7    459     191.97 0.006     121.95    0.419     97.60        2.781 0.72 0.17
            7    460     173.20 0.082      60.98    0.419     97.60        0.867 0.72 0.17
            7    461    1215.66 0.088      60.98    0.419     97.60        1.048 0.72 0.17
            7    462     811.42 0.035      91.46    0.419     97.60        1.525 0.72 0.17
            7    463     125.68 0.006     121.95    0.419     97.60        2.766 0.72 0.17
            7    464     273.58 0.015     121.95    0.419     97.60        2.142 0.72 0.17
            8    465      13.56 0.007     121.95    0.038     61.43        0.619 0.75 0.40
            8    466      58.01 0.034      91.46    0.038     61.43        0.328 0.75 0.40
            8    467      22.65 0.015     121.95    0.038     61.43        0.494 0.75 0.40
            8    468     987.23 0.272       9.15    0.038     61.43        0.099 0.75 0.40
            8    469       0.22 0.008     121.95    0.038     61.43        0.594 0.75 0.40
            8    470     637.42 0.292       9.15    0.038     61.43        0.080 0.75 0.40
            8    471       0.96 0.016     121.95    0.038     61.43        0.483 0.75 0.40
            8    472      10.37 0.038      91.46    0.038     61.43        0.314 0.75 0.40
            8    473       4.49 0.007     121.95    0.038     61.43        0.619 0.75 0.40
            8    474      72.33 0.036      91.46    0.038     61.43        0.324 0.75 0.40
            8    475      18.59 0.016     121.95    0.038     61.43        0.484 0.75 0.40
            8    476    1935.36 0.279       9.15    0.038     61.43        0.142 0.75 0.40
            8    477     142.56 0.015     121.95    0.038     61.43        0.502 0.75 0.40
            8    478     810.55 0.162      18.29    0.038     61.43        0.123 0.75 0.40
            8    479     308.07 0.033      91.46    0.038     61.43        0.347 0.75 0.40
            8    480      53.98 0.007     121.95    0.038     61.43        0.623 0.75 0.40
            8    481      24.27 0.015     121.95    0.038     61.43        0.494 0.75 0.40
            8    482     173.20 0.037      91.46    0.038     61.43        0.328 0.75 0.40
            8    483    2008.48 0.178      18.29    0.038     61.43        0.177 0.75 0.40
            8    484       9.81 0.005     121.95    0.038     61.43        0.685 0.75 0.40
            8    485     282.73 0.036      91.46    0.038     61.43        0.337 0.75 0.40
            8    486      68.29 0.015     121.95    0.038     61.43        0.497 0.75 0.40
            8    487      20.69 0.006     121.95    0.038     61.43        0.649 0.75 0.40
            8    488    1684.49 0.164      18.29    0.038     61.43        0.165 0.75 0.40
            8    489       3.32 0.015     121.95    0.038     61.43        0.492 0.75 0.40
            8    490       3.32 0.005     121.95    0.038     61.43        0.684 0.75 0.40
            8    491      26.12 0.038      91.46    0.038     61.43        0.315 0.75 0.40
            8    492     838.79 0.244      15.24    0.038     61.43        0.109 0.75 0.40
            8    493      69.87 0.007     121.95    0.038     61.43        0.624 0.75 0.40
            8    494     165.01 0.015     121.95    0.038     61.43        0.503 0.75 0.40
            8    495   41609.32 0.316       9.15    0.038     61.43        1.494 0.75 0.40
            8    496     681.88 0.036      91.46    0.038     61.43        0.358 0.75 0.40
            8    497   30480.30 0.401       9.15    0.038     61.43        1.145 0.75 0.40
            8    498     175.77 0.036      91.46    0.038     61.43        0.330 0.75 0.40
            8    499      24.17 0.006     121.95    0.038     61.43        0.650 0.75 0.40
            8    500      37.90 0.015     121.95    0.038     61.43        0.495 0.75 0.40
            8    501   26361.52 0.357       9.15    0.038     61.43        1.014 0.75 0.40
            8    502      15.44 0.006     121.95    0.038     61.43        0.649 0.75 0.40
            8    503     231.30 0.037      91.46    0.038     61.43        0.331 0.75 0.40
            8    504      32.13 0.016     121.95    0.038     61.43        0.485 0.75 0.40
            8    505       0.73 0.006     121.95    0.038     65.45        0.648 0.75 0.40
            8    506       1.64 0.015     121.95    0.038     65.45        0.492 0.75 0.40
            8    507      14.70 0.037      91.46    0.038     65.45        0.317 0.75 0.40
            8    508     501.66 0.246      15.24    0.038     65.45        0.091 0.75 0.40
            8    509      36.31 0.015     121.95    0.038     65.45        0.495 0.75 0.40
            8    510     118.19 0.036      91.46    0.038     65.45        0.327 0.75 0.40
            8    511      20.33 0.006     121.95    0.038     65.45        0.649 0.75 0.40
            8    512    2073.24 0.245      15.24    0.038     65.45        0.166 0.75 0.40
            8    513       7.30 0.015     121.95    0.038     97.27        0.493 0.75 0.40
            8    514    1612.29 0.247      15.24    0.038     97.27        0.145 0.75 0.40
            8    515      46.64 0.037      91.46    0.038     97.27        0.319 0.75 0.40
            8    516       1.88 0.008     121.95    0.038     97.27        0.594 0.75 0.40
            8    517      41.59 0.006     121.95    0.038     97.27        0.651 0.75 0.40
            8    518     108.27 0.015     121.95    0.038     97.27        0.500 0.75 0.40
            8    519     310.77 0.035      91.46    0.038     97.27        0.341 0.75 0.40
            8    520    4538.46 0.249      15.24    0.038     97.27        0.270 0.75 0.40
            8    521     118.58 0.036      91.46    0.038     97.27        0.327 0.75 0.40
            8    522    1839.70 0.259       9.15    0.038     97.27        0.139 0.75 0.40
            8    523      23.04 0.015     121.95    0.038     97.27        0.494 0.75 0.40
            8    524       8.05 0.004     121.95    0.038     97.27        0.732 0.75 0.40
            9    525     116.05 0.006     121.95    0.038     61.43        0.659 0.75 0.40
            9    526   12870.45 0.132      24.39    0.038     61.43        0.811 0.75 0.40
            9    527    2041.75 0.037      91.46    0.038     61.43        0.458 0.75 0.40
            9    528     330.85 0.016     121.95    0.038     61.43        0.511 0.75 0.40
            9    529      30.00 0.006     121.95    0.038     61.43        0.651 0.75 0.40
            9    530    8891.71 0.212      15.24    0.038     61.43        0.580 0.75 0.40
            9    531     441.03 0.037      91.46    0.038     61.43        0.353 0.75 0.40
            9    532      76.13 0.016     121.95    0.038     61.43        0.490 0.75 0.40
            9    533      16.88 0.016     121.95    0.038     61.43        0.485 0.75 0.40
            9    534     140.26 0.038      91.46    0.038     61.43        0.327 0.75 0.40
            9    535   27342.16 0.410       9.15    0.038     61.43        1.419 0.75 0.40
            9    536       6.62 0.006     121.95    0.038     61.43        0.648 0.75 0.40
            9    537      19.00 0.006     121.95    0.038     61.43        0.650 0.75 0.40
            9    538      52.38 0.015     121.95    0.038     61.43        0.498 0.75 0.40
            9    539     328.27 0.037      91.46    0.038     61.43        0.344 0.75 0.40
            9    540   28396.61 0.329       9.15    0.038     61.43        1.468 0.75 0.40
            9    541    3282.97 0.129      24.39    0.038     61.43        0.314 0.75 0.40
            9    542     542.47 0.037      91.46    0.038     61.43        0.360 0.75 0.40
            9    543      89.39 0.016     121.95    0.038     61.43        0.492 0.75 0.40
            9    544      32.02 0.007     121.95    0.038     61.43        0.622 0.75 0.40
            9    545     641.16 0.036      91.46    0.038     65.45        0.370 0.75 0.40
            9    546    2776.38 0.129      24.39    0.038     65.45        0.285 0.75 0.40
            9    547     116.31 0.016     121.95    0.038     65.45        0.494 0.75 0.40
            9    548      50.04 0.006     121.95    0.038     65.45        0.653 0.75 0.40
            9    549     626.59 0.250      15.24    0.038     65.45        0.111 0.75 0.40
            9    550      31.70 0.038      91.46    0.038     65.45        0.317 0.75 0.40
            9    551       3.60 0.014     121.95    0.038     65.45        0.503 0.75 0.40
            9    552       1.65 0.006     121.95    0.038     65.45        0.648 0.75 0.40
            9    553    2129.32 0.108      60.98    0.038     75.33        0.327 0.75 0.40
            9    554     134.96 0.016     121.95    0.038     75.33        0.496 0.75 0.40
            9    555     767.80 0.036      91.46    0.038     75.33        0.379 0.75 0.40
            9    556      66.05 0.005     121.95    0.038     75.33        0.691 0.75 0.40
            9    557     139.93 0.006     121.95    0.038     97.27        0.661 0.75 0.40
            9    558     333.19 0.016     121.95    0.038     97.27        0.512 0.75 0.40
            9    559    1908.82 0.036      91.46    0.038     97.27        0.453 0.75 0.40
            9    560    9515.96 0.133      24.39    0.038     97.27        0.645 0.75 0.40
           10    561    2948.81 0.132      24.39    0.251     75.36        0.849 0.10 0.05
           10    562      42.42 0.006     121.95    0.251     75.36        2.023 0.10 0.05
           10    563     108.44 0.015     121.95    0.251     75.36        1.557 0.10 0.05
           10    564     653.20 0.037      91.46    0.251     75.36        1.126 0.10 0.05
           10    565     114.31 0.006     121.95    0.251     75.36        2.042 0.10 0.05
           10    566     216.49 0.015     121.95    0.251     75.36        1.582 0.10 0.05
           10    567    7099.44 0.149      24.39    0.251     75.36        1.470 0.10 0.05
           10    568     974.91 0.036      91.46    0.251     75.36        1.195 0.10 0.05
           10    569   17311.44 0.186      18.29    0.251     75.36        2.799 0.10 0.05
           10    570     987.49 0.037      91.46    0.251     75.36        1.189 0.10 0.05
           10    571     162.33 0.015     121.95    0.251     75.36        1.570 0.10 0.05
           10    572      89.65 0.005     121.95    0.251     75.36        2.148 0.10 0.05
           10    573     450.29 0.015     121.95    0.251     75.36        1.632 0.10 0.05
           10    574    1456.77 0.035      91.46    0.251     75.36        1.291 0.10 0.05
           10    575     269.59 0.006     121.95    0.251     75.36        2.077 0.10 0.05
           10    576    5388.67 0.141      24.39    0.251     75.36        1.222 0.10 0.05
           10    577     130.96 0.006     121.95    0.251     75.36        2.046 0.10 0.05
           10    578    1105.31 0.036      91.46    0.251     75.36        1.219 0.10 0.05
           10    579     287.79 0.015     121.95    0.251     75.36        1.598 0.10 0.05
           10    580   10943.21 0.176      18.29    0.251     75.36        1.953 0.10 0.05
           10    581    9888.87 0.294       9.15    0.251     75.36        1.706 0.10 0.05
           10    582      35.64 0.005     121.95    0.251     75.36        2.134 0.10 0.05
           10    583     353.45 0.037      91.46    0.251     75.36        1.065 0.10 0.05
           10    584      66.56 0.016     121.95    0.251     75.36        1.517 0.10 0.05
           10    585      99.99 0.004     121.95    0.251     75.36        2.298 0.10 0.05
           10    586     694.07 0.037      91.46    0.251     75.36        1.134 0.10 0.05
           10    587     119.35 0.015     121.95    0.251     75.36        1.560 0.10 0.05
           10    588   45427.38 0.298       9.15    0.251     75.36        6.107 0.10 0.05
           10    589      71.92 0.007     121.95    0.251     75.36        1.940 0.10 0.05
           10    590     161.69 0.015     121.95    0.251     75.36        1.570 0.10 0.05
           10    591   23807.47 0.245      15.24    0.251     75.36        3.585 0.10 0.05
           10    592     886.22 0.036      91.46    0.251     75.36        1.179 0.10 0.05
           10    593     165.30 0.016     121.95    0.251     75.36        1.541 0.10 0.05
           10    594     951.24 0.037      91.46    0.251     75.36        1.183 0.10 0.05
           10    595   78880.96 0.361       9.15    0.251     75.36        9.809 0.10 0.05
           10    596      78.52 0.006     121.95    0.251     75.36        2.033 0.10 0.05
           10    597      31.61 0.005     121.95    0.251     75.36        2.133 0.10 0.05
           10    598    7192.92 0.188      18.29    0.251     75.36        1.420 0.10 0.05
           10    599     357.62 0.037      91.46    0.251     75.36        1.066 0.10 0.05
           10    600      58.36 0.015     121.95    0.251     75.36        1.544 0.10 0.05
           10    601     199.52 0.015     121.95    0.251     75.36        1.578 0.10 0.05
           10    602     121.43 0.006     121.95    0.251     75.36        2.043 0.10 0.05
           10    603     641.09 0.035      91.46    0.251     75.36        1.140 0.10 0.05
           10    604    2228.43 0.133      24.39    0.251     75.36        0.729 0.10 0.05
           10    605      29.82 0.006     121.95    0.251     75.36        2.020 0.10 0.05
           10    606      79.06 0.015     121.95    0.251     75.36        1.550 0.10 0.05
           10    607     366.44 0.036      91.46    0.251     75.36        1.076 0.10 0.05
           10    608    5186.16 0.183      18.29    0.251     75.36        1.126 0.10 0.05
           10    609      60.28 0.015     121.95    0.251     97.55        1.545 0.10 0.05
           10    610      40.82 0.004     121.95    0.251     97.55        2.283 0.10 0.05
           10    611    6613.77 0.223      15.24    0.251     97.55        1.302 0.10 0.05
           10    612     308.96 0.037      91.46    0.251     97.55        1.056 0.10 0.05
           10    613      63.76 0.005     121.95    0.251     97.55        2.142 0.10 0.05
           10    614     502.44 0.035      91.46    0.251     97.55        1.112 0.10 0.05
           10    615     123.55 0.015     121.95    0.251     97.55        1.561 0.10 0.05
           10    616    4300.60 0.210      15.24    0.251     97.55        0.958 0.10 0.05
           10    617    4374.49 0.297       9.15    0.251     97.55        0.903 0.10 0.05
           10    618      18.35 0.006     121.95    0.251     97.55        2.016 0.10 0.05
           10    619      49.37 0.015     121.95    0.251     97.55        1.542 0.10 0.05
           10    620     193.79 0.036      91.46    0.251     97.55        1.038 0.10 0.05
           11    621     178.27 0.005     121.95    0.247     77.92        2.132 0.22 0.29
           11    622     303.05 0.015     121.95    0.247     77.92        1.559 0.22 0.29
           11    623    1703.71 0.036      91.46    0.247     77.92        1.192 0.22 0.29
           11    624   11781.87 0.129      24.39    0.247     77.92        1.461 0.22 0.29
           11    625    2750.92 0.036      91.46    0.247     77.92        1.303 0.22 0.29
           11    626   13807.73 0.126      24.39    0.247     77.92        1.636 0.22 0.29
           11    627     520.90 0.015     121.95    0.247     77.92        1.588 0.22 0.29
           11    628     243.35 0.006     121.95    0.247     77.92        2.029 0.22 0.29
           11    629    6960.08 0.137      24.39    0.247     77.92        1.028 0.22 0.29
           11    630    2005.39 0.035      91.46    0.247     77.92        1.233 0.22 0.29
           11    631     641.42 0.015     121.95    0.247     77.92        1.603 0.22 0.29
           11    632     422.22 0.006     121.95    0.247     77.92        2.053 0.22 0.29
           11    633      64.72 0.005     121.95    0.247     77.92        2.115 0.22 0.29
           11    634   53621.33 0.346       9.15    0.247     77.92        4.490 0.22 0.29
           11    635     700.58 0.037      91.46    0.247     77.92        1.069 0.22 0.29
           11    636     121.01 0.015     121.95    0.247     77.92        1.533 0.22 0.29
           11    637     891.63 0.036      91.46    0.247     77.92        1.100 0.22 0.29
           11    638     193.49 0.015     121.95    0.247     77.92        1.544 0.22 0.29
           11    639   26219.13 0.300       9.15    0.247     77.92        2.464 0.22 0.29
           11    640     135.64 0.005     121.95    0.247     77.92        2.126 0.22 0.29
           11    641      32.18 0.006     121.95    0.247     77.92        1.997 0.22 0.29
           11    642      87.06 0.016     121.95    0.247     77.92        1.499 0.22 0.29
           11    643     520.11 0.037      91.46    0.247     77.92        1.046 0.22 0.29
           11    644    4074.24 0.131      24.39    0.247     77.92        0.758 0.22 0.29
           11    645     197.75 0.016     121.95    0.247     77.92        1.516 0.22 0.29
           11    646     108.64 0.006     121.95    0.247     77.92        2.010 0.22 0.29
           11    647    1019.40 0.036      91.46    0.247     77.92        1.115 0.22 0.29
           11    648    4809.21 0.131      24.39    0.247     77.92        0.830 0.22 0.29
           11    649     656.10 0.035      91.46    0.247     77.92        1.079 0.22 0.29
           11    650    2503.86 0.140      24.39    0.247     77.92        0.594 0.22 0.29
           11    651     180.62 0.015     121.95    0.247     77.92        1.542 0.22 0.29
           11    652     133.56 0.005     121.95    0.247     77.92        2.125 0.22 0.29
           11    653     395.68 0.014     121.95    0.247     77.92        1.603 0.22 0.29
           11    654     374.28 0.156      24.39    0.247     77.92        0.342 0.22 0.29
           11    655    9239.63 0.001     121.95    0.247     77.92        4.344 0.22 0.29
           11    656     435.24 0.031      91.46    0.247     77.92        1.088 0.22 0.29
           11    657      94.18 0.016     121.95    0.247     80.13        1.500 0.22 0.29
           11    658      48.76 0.006     121.95    0.247     80.13        2.000 0.22 0.29
           11    659    2247.31 0.122      24.39    0.247     80.13        0.579 0.22 0.29
           11    660     452.96 0.036      91.46    0.247     80.13        1.045 0.22 0.29
           11    661      52.59 0.016     121.95    0.247     80.13        1.493 0.22 0.29
           11    662      21.28 0.006     121.95    0.247     80.13        1.995 0.22 0.29
           11    663     315.75 0.036      91.46    0.247     80.13        1.027 0.22 0.29
           11    664    1469.76 0.122      24.39    0.247     80.13        0.495 0.22 0.29
           11    665    1044.14 0.036      91.46    0.247     97.60        1.118 0.22 0.29
           11    666     122.97 0.005     121.95    0.247     97.60        2.124 0.22 0.29
           11    667     203.26 0.015     121.95    0.247     97.60        1.545 0.22 0.29
           11    668    4909.78 0.123      24.39    0.247     97.60        0.845 0.22 0.29
           11    669      79.47 0.005     121.95    0.247     97.60        2.117 0.22 0.29
           11    670     140.46 0.015     121.95    0.247     97.60        1.536 0.22 0.29
           11    671    3850.77 0.132      24.39    0.247     97.60        0.736 0.22 0.29
           11    672     812.73 0.036      91.46    0.247     97.60        1.090 0.22 0.29
           11    673      42.20 0.005     121.95    0.247     97.60        2.111 0.22 0.29
           11    674     211.11 0.034      91.46    0.247     97.60        1.030 0.22 0.29
           11    675      59.04 0.015     121.95    0.247     97.60        1.523 0.22 0.29
           11    676    2576.71 0.298       9.15    0.247     97.60        0.437 0.22 0.29
           11    677     146.69 0.015     121.95    0.247     97.60        1.537 0.22 0.29
           11    678      91.58 0.006     121.95    0.247     97.60        2.007 0.22 0.29
           11    679    2016.14 0.183      18.29    0.247     97.60        0.476 0.22 0.29
           11    680     464.90 0.035      91.46    0.247     97.60        1.055 0.22 0.29
           12    681     135.43 0.006     121.95    0.376     86.48        2.589 0.53 0.22
           12    682    9190.76 0.167      18.29    0.376     86.48        1.415 0.53 0.22
           12    683    1061.85 0.036      91.46    0.376     86.48        1.427 0.53 0.22
           12    684     238.11 0.015     121.95    0.376     86.48        1.991 0.53 0.22
           12    685     285.72 0.036      91.46    0.376     86.48        1.312 0.53 0.22
           12    686      59.76 0.015     121.95    0.376     86.48        1.959 0.53 0.22
           12    687    1906.60 0.161      18.29    0.376     86.48        0.587 0.53 0.22
           12    688      51.98 0.005     121.95    0.376     86.48        2.717 0.53 0.22
           12    689     280.02 0.015     121.95    0.376     86.48        1.998 0.53 0.22
           12    690   22726.37 0.178      18.29    0.376     86.48        2.754 0.53 0.22
           12    691    1556.19 0.037      91.46    0.376     86.48        1.484 0.53 0.22
           12    692     130.91 0.006     121.95    0.376     86.48        2.588 0.53 0.22
           12    693     630.17 0.015     121.95    0.376     86.48        2.052 0.53 0.22
           12    694     324.72 0.006     121.95    0.376     86.48        2.621 0.53 0.22
           12    695   45482.59 0.205      15.24    0.376     86.48        4.764 0.53 0.22
           12    696    2851.17 0.036      91.46    0.376     86.48        1.659 0.53 0.22
           12    697   12818.57 0.213      15.24    0.376     86.48        1.741 0.53 0.22
           12    698     201.80 0.015     121.95    0.376     86.48        1.985 0.53 0.22
           12    699     156.95 0.006     121.95    0.376     86.48        2.593 0.53 0.22
           12    700     810.21 0.036      91.46    0.376     86.48        1.392 0.53 0.22
           12    701     292.58 0.006     121.95    0.376     86.48        2.616 0.53 0.22
           12    702  112249.38 0.317       9.15    0.376     86.48       10.104 0.53 0.22
           12    703    2350.07 0.036      91.46    0.376     86.48        1.596 0.53 0.22
           12    704     513.51 0.015     121.95    0.376     86.48        2.035 0.53 0.22
           12    705     166.91 0.016     121.95    0.376     86.48        1.942 0.53 0.22
           12    706   63592.62 0.348       9.15    0.376     86.48        6.206 0.53 0.22
           12    707      93.68 0.006     121.95    0.376     86.48        2.581 0.53 0.22
           12    708     868.95 0.036      91.46    0.376     86.48        1.400 0.53 0.22
           12    709     401.11 0.015     121.95    0.376     86.48        2.018 0.53 0.22
           12    710    2169.63 0.036      91.46    0.376     86.48        1.574 0.53 0.22
           12    711  161094.70 0.349       9.15    0.376     86.48       13.795 0.53 0.22
           12    712     217.62 0.006     121.95    0.376     86.48        2.603 0.53 0.22
           12    713      35.45 0.006     121.95    0.376     86.48        2.570 0.53 0.22
           12    714    7923.54 0.181      18.29    0.376     86.48        1.273 0.53 0.22
           12    715     503.84 0.037      91.46    0.376     86.48        1.336 0.53 0.22
           12    716      83.41 0.015     121.95    0.376     86.48        1.964 0.53 0.22
           12    717     271.32 0.015     121.95    0.376     86.48        1.997 0.53 0.22
           12    718   14177.18 0.195      18.29    0.376     86.48        1.915 0.53 0.22
           12    719    1004.99 0.036      91.46    0.376     86.48        1.420 0.53 0.22
           12    720     152.01 0.007     121.95    0.376     86.48        2.476 0.53 0.22
           12    721     269.60 0.036      91.46    0.376     86.48        1.310 0.53 0.22
           12    722      61.89 0.005     121.95    0.376     86.48        2.719 0.53 0.22
           12    723      70.34 0.015     121.95    0.376     86.48        1.961 0.53 0.22
           12    724    3947.86 0.213      15.24    0.376     86.48        0.783 0.53 0.22
           12    725      77.41 0.005     121.95    0.376     97.77        2.722 0.53 0.22
           12    726    9752.53 0.198      18.29    0.376     97.77        1.459 0.53 0.22
           12    727     122.11 0.016     121.95    0.376     97.77        1.934 0.53 0.22
           12    728     643.80 0.036      91.46    0.376     97.77        1.368 0.53 0.22
           12    729   12774.38 0.213      15.24    0.376     97.77        1.736 0.53 0.22
           12    730     137.52 0.006     121.95    0.376     97.77        2.589 0.53 0.22
           12    731     267.05 0.015     121.95    0.376     97.77        1.996 0.53 0.22
           12    732    1220.63 0.036      91.46    0.376     97.77        1.449 0.53 0.22
           12    733     408.39 0.036      91.46    0.376     97.77        1.332 0.53 0.22
           12    734      41.30 0.005     121.95    0.376     97.77        2.715 0.53 0.22
           12    735    9527.43 0.322       9.15    0.376     97.77        1.312 0.53 0.22
           12    736      87.07 0.015     121.95    0.376     97.77        1.965 0.53 0.22
           13    737    2081.47 0.015     121.95    0.451     43.84        2.366 0.22 0.35
           13    738   46015.62 0.116      60.98    0.451     43.84        3.716 0.22 0.35
           13    739    1041.33 0.006     121.95    0.451     43.84        2.963 0.22 0.35
           13    740   10138.73 0.036      91.46    0.451     43.84        2.187 0.22 0.35
           13    741    8001.60 0.035      91.46    0.451     43.84        2.052 0.22 0.35
           13    742    2545.98 0.015     121.95    0.451     43.84        2.404 0.22 0.35
           13    743   28840.30 0.131      24.39    0.451     43.84        2.385 0.22 0.35
           13    744    2014.05 0.006     121.95    0.451     43.84        3.047 0.22 0.35
           13    745     116.65 0.006     121.95    0.451     43.84        2.872 0.22 0.35
           13    746  101599.52 0.378       9.15    0.451     43.84        6.055 0.22 0.35
           13    747     301.45 0.015     121.95    0.451     43.84        2.206 0.22 0.35
           13    748    1001.67 0.035      91.46    0.451     43.84        1.519 0.22 0.35
           13    749   87732.77 0.378       9.15    0.451     43.84        5.347 0.22 0.35
           13    750     828.18 0.037      91.46    0.451     43.84        1.480 0.22 0.35
           13    751     139.85 0.015     121.95    0.451     43.84        2.188 0.22 0.35
           13    752      64.18 0.006     121.95    0.451     43.84        2.866 0.22 0.35
           13    753      60.95 0.015     121.95    0.451     43.84        2.179 0.22 0.35
           13    754      38.84 0.006     121.95    0.451     43.84        2.863 0.22 0.35
           13    755   89246.03 0.455       9.15    0.451     43.84        5.415 0.22 0.35
           13    756     382.77 0.037      91.46    0.451     43.84        1.437 0.22 0.35
           13    757     802.88 0.015     121.95    0.451     43.84        2.255 0.22 0.35
           13    758     422.66 0.006     121.95    0.451     43.84        2.905 0.22 0.35
           13    759   17832.73 0.115      60.98    0.451     43.84        2.060 0.22 0.35
           13    760    4041.05 0.036      91.46    0.451     43.84        1.754 0.22 0.35
           13    761     978.97 0.006     121.95    0.451     43.84        2.958 0.22 0.35
           13    762    1226.40 0.015     121.95    0.451     43.84        2.293 0.22 0.35
           13    763   11313.90 0.131      24.39    0.451     43.84        1.293 0.22 0.35
           13    764    3374.65 0.035      91.46    0.451     43.84        1.715 0.22 0.35
           13    765     347.08 0.006     121.95    0.451     96.92        2.897 0.22 0.35
           13    766   17330.35 0.118      60.98    0.451     96.92        2.022 0.22 0.35
           13    767    4068.27 0.036      91.46    0.451     96.92        1.756 0.22 0.35
           13    768     807.30 0.015     121.95    0.451     96.92        2.256 0.22 0.35
           13    769    2786.21 0.035      91.46    0.451     96.92        1.669 0.22 0.35
           13    770    9021.42 0.150      24.39    0.451     96.92        1.121 0.22 0.35
           13    771     471.02 0.006     121.95    0.451     96.92        2.910 0.22 0.35
           13    772     790.34 0.015     121.95    0.451     96.92        2.254 0.22 0.35
           14    773     300.34 0.006     121.95    0.419     77.95        2.761 0.72 0.17
           14    774    1146.16 0.074      60.98    0.419     77.95        0.937 0.72 0.17
           14    775    1765.91 0.034      91.46    0.419     77.95        1.496 0.72 0.17
           14    776     607.90 0.015     121.95    0.419     77.95        2.127 0.72 0.17
           14    777     495.85 0.015     121.95    0.419     77.95        2.119 0.72 0.17
           14    778     296.14 0.006     121.95    0.419     77.95        2.760 0.72 0.17
           14    779    1559.18 0.034      91.46    0.419     77.95        1.483 0.72 0.17
           14    780    1023.57 0.073      60.98    0.419     77.95        0.932 0.72 0.17
           14    781    3742.82 0.035      91.46    0.419     77.95        1.604 0.72 0.17
           14    782     557.68 0.006     121.95    0.419     77.95        2.780 0.72 0.17
           14    783    1173.08 0.015     121.95    0.419     77.95        2.167 0.72 0.17
           14    784    4675.71 0.084      60.98    0.419     77.95        1.120 0.72 0.17
           14    785     440.28 0.007     121.95    0.419     77.95        2.648 0.72 0.17
           14    786    1122.27 0.015     121.95    0.419     77.95        2.163 0.72 0.17
           14    787    5364.72 0.081      60.98    0.419     77.95        1.167 0.72 0.17
           14    788    4494.38 0.035      91.46    0.419     77.95        1.647 0.72 0.17
           14    789     459.08 0.006     121.95    0.419     77.95        2.773 0.72 0.17
           14    790     839.46 0.015     121.95    0.419     77.95        2.144 0.72 0.17
           14    791    6358.99 0.129      24.39    0.419     77.95        0.811 0.72 0.17
           14    792    2418.77 0.034      91.46    0.419     77.95        1.537 0.72 0.17
           14    793     970.52 0.077      60.98    0.419     77.95        0.915 0.72 0.17
           14    794    1468.70 0.033      91.46    0.419     77.95        1.489 0.72 0.17
           14    795     342.17 0.007     121.95    0.419     77.95        2.640 0.72 0.17
           14    796     659.20 0.015     121.95    0.419     77.95        2.131 0.72 0.17
           14    797    1244.93 0.034      91.46    0.419     77.95        1.462 0.72 0.17
           14    798     178.67 0.007     121.95    0.419     77.95        2.627 0.72 0.17
           14    799     425.10 0.015     121.95    0.419     77.95        2.113 0.72 0.17
           14    800     734.28 0.072      60.98    0.419     77.95        0.916 0.72 0.17
           14    801     350.57 0.006     121.95    0.419     77.95        2.765 0.72 0.17
           14    802    1584.45 0.034      91.46    0.419     77.95        1.484 0.72 0.17
           14    803     516.74 0.015     121.95    0.419     77.95        2.120 0.72 0.17
           14    804     999.06 0.070      60.98    0.419     77.95        0.941 0.72 0.17
           14    805     576.54 0.015     121.95    0.419     77.95        2.125 0.72 0.17
           14    806     738.35 0.032      91.46    0.419     77.95        1.452 0.72 0.17
           14    807     498.56 0.006     121.95    0.419     77.95        2.776 0.72 0.17
           14    808     358.38 0.075      60.98    0.419     77.95        0.877 0.72 0.17
           14    809    2502.43 0.033      91.46    0.419     77.95        1.554 0.72 0.17
           14    810    1621.73 0.076      60.98    0.419     77.95        0.962 0.72 0.17
           14    811     548.62 0.006     121.95    0.419     77.95        2.780 0.72 0.17
           14    812    1130.81 0.015     121.95    0.419     77.95        2.164 0.72 0.17
           14    813     571.24 0.005     121.95    0.419     77.95        2.935 0.72 0.17
           14    814    2058.22 0.034      91.46    0.419     77.95        1.514 0.72 0.17
           14    815     812.19 0.015     121.95    0.419     77.95        2.142 0.72 0.17
           14    816    1326.69 0.075      60.98    0.419     77.95        0.946 0.72 0.17
           14    817    2229.46 0.006     121.95    0.419     77.95        2.892 0.72 0.17
           14    818    3475.74 0.015     121.95    0.419     77.95        2.310 0.72 0.17
           14    819   47899.93 0.102      60.98    0.419     77.95        3.089 0.72 0.17
           14    820   14334.59 0.036      91.46    0.419     77.95        2.150 0.72 0.17
           14    821    2189.18 0.015     121.95    0.419     77.95        2.232 0.72 0.17
           14    822    1027.70 0.006     121.95    0.419     77.95        2.814 0.72 0.17
[...]
           54   3881    1816.40       479.794         0.531      0.000   0.151        1.000  0.079    0.000     0.000
           54   3882     965.64       479.794         0.531      0.000   0.151        1.000  0.079    0.000     0.000
           54   3883     190.40       479.794         0.531      0.000   0.151        1.000  0.079    0.000     0.000
           54   3884     784.33       479.794         0.531      0.000   0.151        1.000  0.079    0.000     0.000
           54   3885    3862.44       479.794         0.531      0.000   0.151        1.000  0.079    0.000     0.000
           54   3886      75.86       479.794         0.531      0.000   0.151        1.000  0.079    0.000     0.000
           54   3887   16592.63       479.794         0.531      0.000   0.151        1.000  0.079    0.000     0.000
           54   3888     198.20       479.794         0.531      0.000   0.151        1.000  0.079    0.000     0.000
           54   3889    1956.74       479.794         0.531      0.000   0.151        1.000  0.079    0.000     0.000
           54   3890     381.41       479.794         0.531      0.000   0.151        1.000  0.079    0.000     0.000
           54   3891     900.58       479.794         0.531      0.000   0.151        1.000  0.079    0.000     0.000
           54   3892     401.59       479.794         0.531      0.000   0.151        1.000  0.079    0.000     0.000
           54   3893     181.07       479.794         0.531      0.000   0.151        1.000  0.079    0.000     0.000
           54   3894    2268.98       479.794         0.531      0.000   0.151        1.000  0.079    0.000     0.000
           54   3895     142.88       479.794         0.531      0.000   0.151        1.000  0.079    0.000     0.000
           54   3896      45.91       479.794         0.531      0.000   0.151        1.000  0.079    0.000     0.000
           54   3897      71.44       479.794         0.531      0.000   0.151        1.000  0.079    0.000     0.000
           54   3898    2827.22       479.794         0.531      0.000   0.151        1.000  0.079    0.000     0.000
           54   3899     500.42       479.794         0.531      0.000   0.151        1.000  0.079    0.000     0.000
           54   3900    1329.90       479.794         0.531      0.000   0.151        1.000  0.079    0.000     0.000
           54   3901    1663.72       479.794         0.531      0.000   0.151        1.000  0.079    0.000     0.000
           54   3902     234.23       479.794         0.531      0.000   0.151        1.000  0.079    0.000     0.000
           54   3903     139.95       479.794         0.531      0.000   0.151        1.000  0.079    0.000     0.000
           54   3904    4598.68       479.794         0.531      0.000   0.151        1.000  0.079    0.000     0.000
           54   3905    1274.56       479.794         0.531      0.000   0.151        1.000  0.079    0.000     0.000
           54   3906     321.19       479.794         0.531      0.000   0.151        1.000  0.079    0.000     0.000
           54   3907     310.41       479.794         0.531      0.000   0.151        1.000  0.079    0.000     0.000
           54   3908     665.05       479.794         0.531      0.000   0.151        1.000  0.079    0.000     0.000
           54   3909     345.67       479.794         0.531      0.000   0.151        1.000  0.079    0.000     0.000
           54   3910     912.06       479.794         0.531      0.000   0.151        1.000  0.079    0.000     0.000
           55   3911     633.63        27.218         0.611      0.000   0.063        1.000  0.215    0.000     0.000
           55   3912     961.43        27.218         0.611      0.000   0.063        1.000  0.215    0.000     0.000
           55   3913     183.81        27.218         0.611      0.000   0.063        1.000  0.215    0.000     0.000
           55   3914     682.19        27.218         0.611      0.000   0.063        1.000  0.215    0.000     0.000
           55   3915     269.66        27.218         0.611      0.000   0.063        1.000  0.215    0.000     0.000
           55   3916     573.80        27.218         0.611      0.000   0.063        1.000  0.215    0.000     0.000
           55   3917     401.72        27.218         0.611      0.000   0.063        1.000  0.215    0.000     0.000
           55   3918     539.56        27.218         0.611      0.000   0.063        1.000  0.215    0.000     0.000
           55   3919    1461.83        27.218         0.611      0.000   0.063        1.000  0.215    0.000     0.000
           55   3920    3103.71        27.218         0.611      0.000   0.063        1.000  0.215    0.000     0.000
           55   3921    1411.77        27.218         0.611      0.000   0.063        1.000  0.215    0.000     0.000
           55   3922     631.23        27.218         0.611      0.000   0.063        1.000  0.215    0.000     0.000
           55   3923    5103.13        27.218         0.611      0.000   0.063        1.000  0.215    0.000     0.000
           55   3924    6060.43        27.218         0.611      0.000   0.063        1.000  0.215    0.000     0.000
           55   3925    1599.06        27.218         0.611      0.000   0.063        1.000  0.215    0.000     0.000
           55   3926    1300.51        27.218         0.611      0.000   0.063        1.000  0.215    0.000     0.000
           55   3927   26743.38        27.218         0.611      0.000   0.063        1.000  0.215    0.000     0.000
           55   3928   37253.21        27.218         0.611      0.000   0.063        1.000  0.215    0.000     0.000
           55   3929   13583.92        27.218         0.611      0.000   0.063        1.000  0.215    0.000     0.000
           55   3930    5533.13        27.218         0.611      0.000   0.063        1.000  0.215    0.000     0.000
           55   3931     786.92        27.218         0.611      0.000   0.063        1.000  0.215    0.000     0.000
           55   3932     189.07        27.218         0.611      0.000   0.063        1.000  0.215    0.000     0.000
           55   3933     661.57        27.218         0.611      0.000   0.063        1.000  0.215    0.000     0.000
           55   3934    1326.57        27.218         0.611      0.000   0.063        1.000  0.215    0.000     0.000
           55   3935     292.77        27.218         0.611      0.000   0.063        1.000  0.215    0.000     0.000
           55   3936     638.98        27.218         0.611      0.000   0.063        1.000  0.215    0.000     0.000
           55   3937     569.57        27.218         0.611      0.000   0.063        1.000  0.215    0.000     0.000
           55   3938     465.59        27.218         0.611      0.000   0.063        1.000  0.215    0.000     0.000
           55   3939    1635.55        27.218         0.611      0.000   0.063        1.000  0.215    0.000     0.000
           55   3940    3716.21        27.218         0.611      0.000   0.063        1.000  0.215    0.000     0.000
           55   3941    1633.53        27.218         0.611      0.000   0.063        1.000  0.215    0.000     0.000
           55   3942     704.69        27.218         0.611      0.000   0.063        1.000  0.215    0.000     0.000
           55   3943    2275.00        27.218         0.611      0.000   0.063        1.000  0.215    0.000     0.000
           55   3944   23504.50        27.218         0.611      0.000   0.063        1.000  0.215    0.000     0.000
           55   3945    3422.69        27.218         0.611      0.000   0.063        1.000  0.215    0.000     0.000
           55   3946    4466.36        27.218         0.611      0.000   0.063        1.000  0.215    0.000     0.000
           55   3947   57699.23        27.218         0.611      0.000   0.063        1.000  0.215    0.000     0.000
           55   3948    1826.26        27.218         0.611      0.000   0.063        1.000  0.215    0.000     0.000
           55   3949    1819.50        27.218         0.611      0.000   0.063        1.000  0.215    0.000     0.000
           55   3950    7430.07        27.218         0.611      0.000   0.063        1.000  0.215    0.000     0.000
           55   3951   53961.13        27.218         0.611      0.000   0.063        1.000  0.215    0.000     0.000
           55   3952    8181.35        27.218         0.611      0.000   0.063        1.000  0.215    0.000     0.000
           55   3953    3381.22        27.218         0.611      0.000   0.063        1.000  0.215    0.000     0.000
           55   3954   29480.03        27.218         0.611      0.000   0.063        1.000  0.215    0.000     0.000
           55   3955     520.96        27.218         0.611      0.000   0.063        1.000  0.215    0.000     0.000
           55   3956     722.48        27.218         0.611      0.000   0.063        1.000  0.215    0.000     0.000
           55   3957    1675.75        27.218         0.611      0.000   0.063        1.000  0.215    0.000     0.000
           55   3958   42653.16        27.218         0.611      0.000   0.063        1.000  0.215    0.000     0.000
           55   3959    2799.91        27.218         0.611      0.000   0.063        1.000  0.215    0.000     0.000
           55   3960     978.25        27.218         0.611      0.000   0.063        1.000  0.215    0.000     0.000
           55   3961     167.24        27.218         0.611      0.000   0.063        1.000  0.215    0.000     0.000
           55   3962     277.98        27.218         0.611      0.000   0.063        1.000  0.215    0.000     0.000
           55   3963    3580.63        27.218         0.611      0.000   0.063        1.000  0.215    0.000     0.000
           55   3964    2754.26        27.218         0.611      0.000   0.063        1.000  0.215    0.000     0.000
           55   3965     807.11        27.218         0.611      0.000   0.063        1.000  0.215    0.000     0.000
           55   3966     303.81        27.218         0.611      0.000   0.063        1.000  0.215    0.000     0.000
           55   3967    1821.43        27.218         0.611      0.000   0.063        1.000  0.215    0.000     0.000
           55   3968    1415.90        27.218         0.611      0.000   0.063        1.000  0.215    0.000     0.000
           55   3969     768.84        27.218         0.611      0.000   0.063        1.000  0.215    0.000     0.000
           55   3970    1535.37        27.218         0.611      0.000   0.063        1.000  0.215    0.000     0.000
           55   3971     810.35        27.218         0.611      0.000   0.063        1.000  0.215    0.000     0.000
           55   3972    2517.99        27.218         0.611      0.000   0.063        1.000  0.215    0.000     0.000
           55   3973     902.26        27.218         0.611      0.000   0.063        1.000  0.215    0.000     0.000
           55   3974    2389.21        27.218         0.611      0.000   0.063        1.000  0.215    0.000     0.000
           55   3975    2373.81        27.218         0.611      0.000   0.063        1.000  0.215    0.000     0.000
           55   3976   15858.87        27.218         0.611      0.000   0.063        1.000  0.215    0.000     0.000
           55   3977    6001.68        27.218         0.611      0.000   0.063        1.000  0.215    0.000     0.000
           55   3978   10393.79        27.218         0.611      0.000   0.063        1.000  0.215    0.000     0.000
           55   3979     182.97        27.218         0.611      0.000   0.063        1.000  0.215    0.000     0.000
           55   3980   22965.93        27.218         0.611      0.000   0.063        1.000  0.215    0.000     0.000
           55   3981     461.88        27.218         0.611      0.000   0.063        1.000  0.215    0.000     0.000
           55   3982     345.46        27.218         0.611      0.000   0.063        1.000  0.215    0.000     0.000
           55   3983     869.15        27.218         0.611      0.000   0.063        1.000  0.215    0.000     0.000
           55   3984     546.28        27.218         0.611      0.000   0.063        1.000  0.215    0.000     0.000
           55   3985     555.15        27.218         0.611      0.000   0.063        1.000  0.215    0.000     0.000
           55   3986    1164.93        27.218         0.611      0.000   0.063        1.000  0.215    0.000     0.000
           55   3987    1131.44        27.218         0.611      0.000   0.063        1.000  0.215    0.000     0.000
           55   3988     399.89        27.218         0.611      0.000   0.063        1.000  0.215    0.000     0.000
           55   3989     271.82        27.218         0.611      0.000   0.063        1.000  0.215    0.000     0.000
           55   3990    1753.10        27.218         0.611      0.000   0.063        1.000  0.215    0.000     0.000
           55   3991    3074.74        27.218         0.611      0.000   0.063        1.000  0.215    0.000     0.000
           55   3992    7718.76        27.218         0.611      0.000   0.063        1.000  0.215    0.000     0.000
           55   3993    1403.55        27.218         0.611      0.000   0.063        1.000  0.215    0.000     0.000
           55   3994    4769.93        27.218         0.611      0.000   0.063        1.000  0.215    0.000     0.000

         Tributary/Main Channel Characteristics
              |--------------Tributary--------------------|---------------------Main---------------------------|
          Sub  Length(km) Slope Width(m) Cond(mm/hr)     N Length(km) Slope Width(m) Depth(m) Cond(mm/hr)     N
            1      122.27 0.005   115.24      0.0000 0.014      24.63 0.000   115.24     2.60     97.8730 0.190
            2      227.73 0.003   119.00      0.0000 0.014     104.74 0.001   119.00     2.65     83.0500 0.217
            3      122.14 0.001   115.99      0.0000 0.014      30.97 0.001  1336.83    13.31     50.4260 0.043
            4       41.73 0.009    45.33      0.0000 0.014      13.89 0.001   221.44     4.01     97.8730 0.190
            5       25.50 0.010    27.37      0.0000 0.014      14.11 0.001   211.86     3.90     97.8730 0.190
            6       66.15 0.003    67.28      0.0000 0.014      46.33 0.003   207.63     3.85     97.8730 0.190
            7      100.63 0.001    92.81      0.0000 0.014      77.12 0.000  1323.15    13.22     93.3400 0.360
            8       75.51 0.016    91.31      0.0000 0.014      12.07 0.000    91.31     2.22      9.5100 0.454
            9       88.82 0.016    83.24      0.0000 0.014      54.69 0.003   132.38     2.85      9.5100 0.454
           10      311.48 0.003   139.56      0.0000 0.014     195.81 0.000   139.56     2.95     10.3170 0.198
           11      135.20 0.003   111.40      0.0000 0.014     131.23 0.001   301.60     4.93    112.5810 0.398
           12      417.55 0.002   215.98      0.0000 0.014      12.48 0.005   273.58     4.62     84.6210 0.162
           13      313.34 0.004   202.25      0.0000 0.014     198.30 0.002   202.25     3.78      3.5640 0.147
           14      107.12 0.001   170.89      0.0000 0.014      71.09 0.000  1313.66    13.16     93.3400 0.360
           15       66.65 0.002    57.30      0.0000 0.014      51.38 0.001   357.31     5.52    117.7500 0.372
           16       89.81 0.002    76.79      0.0000 0.014      85.87 0.000   319.74     5.13    112.5810 0.398
           17        5.12 0.012     4.20      0.0000 0.014       1.21 0.000   534.89     7.23     63.1640 0.181
           18      111.94 0.014   103.78      0.0000 0.014      53.85 0.000   383.96     5.80    117.7500 0.372
           19      101.68 0.002    87.09      0.0000 0.014      82.86 0.000   297.26     4.89     38.5150 0.290
           20       19.07 0.006    21.62      0.0000 0.014      13.26 0.000   299.52     4.91     38.5150 0.290
           21      139.11 0.003   132.12      0.0000 0.014      52.89 0.001   132.12     2.85     24.0960 0.388
           22       69.19 0.004    48.43      0.0000 0.014      18.85 0.000   351.16     5.46     38.5150 0.290
           23      155.89 0.010   115.38      0.0000 0.014      69.74 0.005   115.38     2.60      0.8340 0.171
           24      146.38 0.011   110.91      0.0000 0.014      70.49 0.000   557.87     7.43     63.1640 0.181
           25       64.35 0.002    50.20      0.0000 0.014      30.67 0.000   305.36     4.97    108.3050 0.239
           26      115.15 0.010    91.26      0.0000 0.014      25.81 0.000   257.10     4.44    139.1820 0.302
           27      274.80 0.005   210.31      0.0000 0.014     166.89 0.002   210.31     3.88     70.1590 0.239
           28        2.89 0.027   118.08      0.0000 0.014      81.94 0.000   797.07     9.43     63.1640 0.181
           29      218.83 0.001   174.55      0.0000 0.014     178.91 0.000   253.09     4.39    108.3050 0.239
           30      122.31 0.011   119.68      0.0000 0.014      35.34 0.001   119.68     2.66     53.0580 0.376
           31      144.18 0.006   129.49      0.0000 0.014      26.40 0.000   188.93     3.61     89.4420 0.445
           32      114.15 0.012   104.66      0.0000 0.014      64.81 0.004   228.57     4.10    139.1820 0.302
           33      165.25 0.001   124.41      0.0000 0.014     158.75 0.000   159.16     3.22      6.9770 0.094
           34       84.47 0.002    82.83      0.0000 0.014       2.69 0.001    82.83     2.09      6.9770 0.094
           35       73.51 0.002    81.81      0.0000 0.014      25.09 0.000   261.11     4.48    104.4750 0.285
           36      174.03 0.001   203.23      0.0000 0.014     127.82 0.000  1215.60    12.49     18.7960 0.201
           37      110.15 0.007   116.09      0.0000 0.014      67.59 0.003   237.76     4.21    104.4750 0.285
           38      208.90 0.001   122.89      0.0000 0.014     119.66 0.001   122.89     2.71     44.8820 0.189
           39      119.52 0.008   141.26      0.0000 0.014      40.32 0.002   141.26     2.97    104.4750 0.285
           40       29.22 0.007    22.35      0.0000 0.014      19.61 0.002   110.14     2.52    103.0700 0.221
           41       86.16 0.004    98.92      0.0000 0.014      14.58 0.000    98.92     2.35     67.0980 0.293
           42      130.91 0.001   125.19      0.0000 0.014      89.73 0.000   889.83    10.15     75.6810 0.325
           43      114.09 0.004   105.05      0.0000 0.014       5.24 0.000   904.91    10.26     75.6810 0.325
           44      144.99 0.006   105.44      0.0000 0.014      41.71 0.004   105.44     2.45    103.0700 0.221
           45      167.69 0.004   104.83      0.0000 0.014      34.49 0.000   104.83     2.44     56.7840 0.389
           46       49.74 0.009    52.12      0.0000 0.014      10.19 0.000   936.40    10.50     58.4120 0.110
           47      135.81 0.002    92.97      0.0000 0.014      69.35 0.000   917.10    10.35     75.6810 0.325
           48      152.18 0.003   121.15      0.0000 0.014     141.57 0.001   167.35     3.33     67.0980 0.293
           49       56.86 0.001    71.85      0.0000 0.014      26.82 0.000  1178.21    12.24     18.7960 0.201
           50      137.58 0.001   160.76      0.0000 0.014      82.64 0.000  1171.52    12.19    129.2370 0.133
           51      115.39 0.001   156.55      0.0000 0.014      23.94 0.001  1125.08    11.87    129.2370 0.133
           52      185.77 0.001   140.72      0.0000 0.014      70.69 0.000   234.06     4.17     94.5110 0.282
           53      234.47 0.002   272.62      0.0000 0.014     112.33 0.000  1099.67    11.69     86.9310 0.271
           54      206.08 0.001   139.11      0.0000 0.014      34.68 0.000   139.11     2.94     72.0770 0.193
           55      145.71 0.003   205.90      0.0000 0.014     112.92 0.000   980.71    10.83     58.4120 0.110
