1
    SWAT Jun 11 2014    VER 2012/Rev 627                                                                 0/ 0/   0      0: 0: 0

    General Input/Output section (file.cio):                                        
    11/15/2017 12:00:00 AM ARCGIS-SWAT interface AV                                 
                                                                                    


       SUB      GIS  MON   AREAkm2  PRECIPmm SNOMELTmm     PETmm      ETmm      SWmm    PERCmm    SURQmm    GW_Qmm    WYLDmm  SYLDt/ha ORGNkg/ha ORGPkg/haNSURQkg/ha SOLPkg/ha SEDPkg/ha LAT Q(mm)LATNO3kg/hGWNO3kg/haCHOLAmic/LCBODU mg/L DOXQ mg/L TNO3kg/ha
BIGSUB   1        0    1.17853E+04    76.131    27.000    28.333    19.017   120.761     1.246     2.765     0.271    11.565     0.005     0.032     0.001     0.011     0.000     0.508     8.257     0.545     0.003 .00000E+00 0.000E+00 0.000E+00 0.000E+00     1
BIGSUB   2        0    1.18834E+04    74.285    26.000    15.460     9.279   173.627     0.015     2.670     0.002     8.549     0.061     0.143     0.003     0.002     0.003     0.543     5.876     0.193     0.000 .00000E+00 0.000E+00 0.000E+00 0.000E+00     2
BIGSUB   3        0    1.18046E+04    79.101    34.207    20.099    12.018   246.892     0.000     4.883     0.000     4.940     0.049     0.171     0.004     0.006     0.011     0.232     0.057     0.001     0.000 .00000E+00 0.000E+00 0.000E+00 0.000E+00     3
BIGSUB   4        0    1.37698E+03    79.367    32.000    19.111    14.972   130.787     1.328     9.584     0.287    14.854     0.123     0.191     0.010     0.011     0.009     1.394     4.699     0.360     0.000 .00000E+00 0.000E+00 0.000E+00 0.000E+00     4
BIGSUB   5        0    1.16264E+03    79.367    32.000    19.456    14.906   183.096     0.125     9.289     0.027    11.538     0.057     0.091     0.010     0.011     0.005     1.407     2.194     0.123     0.000 .00000E+00 0.000E+00 0.000E+00 0.000E+00     5
BIGSUB   6        0    1.72804E+03    77.358    27.000    19.503    14.241   135.963     1.545     7.072     0.336    15.488     0.047     0.081     0.007     0.008     0.004     1.187     7.744     0.515     0.015 .00000E+00 0.000E+00 0.000E+00 0.000E+00     6
BIGSUB   7        0    1.12444E+04    82.183    34.207    25.464    15.827   254.973     0.000     6.389     0.000     7.606     0.091     0.359     0.005     0.010     0.015     0.304     1.217     0.004     0.000 .00000E+00 0.000E+00 0.000E+00 0.000E+00     7
BIGSUB   8        0    1.12111E+04    85.292    35.062    15.239    10.380   166.851     0.000     9.962     0.000    16.823     0.735     2.783     0.021     0.003     0.022     2.234     6.861     0.256     0.000 .00000E+00 0.000E+00 0.000E+00 0.000E+00     8
BIGSUB   9        0    1.10381E+04    85.395    35.062    15.415    10.287   209.991     0.000    10.508     0.000    15.906     0.511     1.559     0.016     0.005     0.016     1.628     5.398     0.204     0.000 .00000E+00 0.000E+00 0.000E+00 0.000E+00     9
BIGSUB  10        0    1.24562E+04    96.982    22.312    20.647    14.854   225.092     0.000     6.357     0.000    11.668     0.233     0.370     0.007     0.008     0.015     0.697     5.310     0.109     0.000 .00000E+00 0.000E+00 0.000E+00 0.000E+00    10
BIGSUB  11        0    1.16872E+04    79.367    37.000    24.160    20.286   282.405     0.000    12.994     0.000    17.380     1.089     1.996     0.030     0.006     0.027     2.714     4.386     0.037     0.000 .00000E+00 0.000E+00 0.000E+00 0.000E+00    11
BIGSUB  12        0    1.50857E+04    78.984    32.000    17.027    14.410   148.426     0.000     7.878     0.000    11.365     0.226     0.597     0.008     0.013     0.020     0.702     3.487     0.113     0.000 .00000E+00 0.000E+00 0.000E+00 0.000E+00    12
BIGSUB  13        0    1.45584E+04   124.534    28.313    15.810    11.932   237.871     0.000     3.679     0.000     3.721     0.006     0.009     0.002     0.001     0.001     0.505     0.042     0.002     0.000 .00000E+00 0.000E+00 0.000E+00 0.000E+00    13
BIGSUB  14        0    1.34427E+04    83.066    42.486    30.223    24.326   363.147     0.000     8.441     0.000    10.441     0.199     0.605     0.008     0.010     0.022     0.591     2.000     0.081     0.000 .00000E+00 0.000E+00 0.000E+00 0.000E+00    14
BIGSUB  15        0    1.55713E+03    79.367    28.000    31.688    25.708    74.870     6.397     4.050     0.480     8.175     0.032     0.026     0.004     0.005     0.003     0.482     3.630     0.388     0.003 .00000E+00 0.000E+00 0.000E+00 0.000E+00    15
BIGSUB  16        0    1.90746E+03    79.367    28.000    28.330    26.658   360.180     0.000    12.100     0.000    13.498     0.397     0.689     0.015     0.006     0.025     1.162     1.398     0.015     0.000 .00000E+00 0.000E+00 0.000E+00 0.000E+00    16
BIGSUB  17        0    1.71571E+01    63.293    25.000    30.525    22.860   115.517     0.314     7.675     0.075     8.434     0.085     0.213     0.015     0.041     0.008     0.977     0.656     0.031     0.004 .00000E+00 0.000E+00 0.000E+00 0.000E+00    17
BIGSUB  18        0    1.14992E+04    79.367    28.000    26.673    23.467    64.743     7.376     3.496     0.536     7.607     0.021     0.012     0.003     0.003     0.002     0.692     3.559     0.492     0.000 .00000E+00 0.000E+00 0.000E+00 0.000E+00    18
BIGSUB  19        0    1.11194E+04    82.365    28.000    26.208    23.985   372.795     1.034     7.429     0.067    14.243     0.022     0.052     0.006     0.009     0.005     0.444     6.744     0.100     0.000 .00000E+00 0.000E+00 0.000E+00 0.000E+00    19
BIGSUB  20        0    1.10973E+03    82.381    28.000    25.878    23.897   399.389     0.775     5.774     0.050    12.239     0.010     0.042     0.008     0.014     0.003     0.431     6.413     0.094     0.000 .00000E+00 0.000E+00 0.000E+00 0.000E+00    20
BIGSUB  21        0    1.22421E+04    83.992    32.000    21.057    14.417   253.802     0.000    14.830     0.000    17.925     0.859     2.475     0.024     0.003     0.037     2.323     3.095     0.071     0.000 .00000E+00 0.000E+00 0.000E+00 0.000E+00    21
BIGSUB  22        0    1.42091E+03    82.232    28.000    29.861    27.488   307.657     1.284     6.364     0.083    11.550     0.022     0.072     0.007     0.011     0.005     0.589     5.099     0.135     0.000 .00000E+00 0.000E+00 0.000E+00 0.000E+00    22
BIGSUB  23        0    1.17889E+04    93.432    25.000    14.093    11.740   364.716     0.000     4.675     0.000    14.076     0.036     0.177     0.004     0.003     0.002     1.358     9.401     0.336     0.000 .00000E+00 0.000E+00 0.000E+00 0.000E+00    23
BIGSUB  24        0    1.16748E+04    63.293    25.000    30.415    22.979   115.877     0.000     7.856     0.000     9.781     0.169     0.145     0.009     0.010     0.008     0.998     1.924     0.083     0.000 .00000E+00 0.000E+00 0.000E+00 0.000E+00    24
BIGSUB  25        0    1.44689E+03    67.234    42.000    30.712    23.956   283.245     0.000     5.130     0.000     5.301     0.193     0.575     0.007     0.006     0.014     0.476     0.171     0.002     0.000 .00000E+00 0.000E+00 0.000E+00 0.000E+00    25
BIGSUB  26        0    1.12102E+04   150.697    55.062    20.831    16.399   179.847     7.729     4.555     0.040     6.693     0.015     0.015     0.004     0.004     0.002     0.387     2.095     0.267     0.003 .00000E+00 0.000E+00 0.000E+00 0.000E+00    26
BIGSUB  27        0    1.48653E+04    55.209     9.000    36.121    18.726    98.418     0.000     3.165     0.000     3.467     0.011     0.031     0.002     0.003     0.001     0.494     0.302     0.015     0.000 .00000E+00 0.000E+00 0.000E+00 0.000E+00    27
BIGSUB  28        0    1.18591E+04    84.390    32.000    16.051    11.905   260.361     3.626     9.040     0.816    12.000     0.264     0.520     0.009     0.003     0.013     0.801     1.846     0.098     0.151 .00000E+00 0.000E+00 0.000E+00 0.000E+00    28
BIGSUB  29        0    1.35664E+04    67.129    42.000    35.483    26.458   325.058     0.000     3.563     0.000     3.852     0.055     0.147     0.003     0.002     0.007     0.344     0.289     0.004     0.000 .00000E+00 0.000E+00 0.000E+00 0.000E+00    29
BIGSUB  30        0    1.19013E+04    93.380    29.000    26.085    21.104   236.380     0.000     3.129     0.000     7.738     0.021     0.066     0.003     0.003     0.001     0.665     4.610     0.186     0.000 .00000E+00 0.000E+00 0.000E+00 0.000E+00    30
BIGSUB  31        0    1.21681E+04   106.333    40.000    30.305    28.240   188.370     0.000     6.846     0.000     9.528     0.555     1.459     0.016     0.003     0.012     1.736     2.683     0.122     0.000 .00000E+00 0.000E+00 0.000E+00 0.000E+00    31
BIGSUB  32        0    1.15204E+04   150.697    57.517    22.436    17.657   166.453    11.831     3.007     0.073     7.322     0.032     0.033     0.003     0.002     0.002     0.690     4.237     0.469     0.005 .00000E+00 0.000E+00 0.000E+00 0.000E+00    32
BIGSUB  33        0    1.20281E+04    63.161    25.000    35.350    25.259   224.296     0.000     1.674     0.000     2.667     0.003     0.006     0.002     0.002     0.001     0.041     0.993     0.006     0.000 .00000E+00 0.000E+00 0.000E+00 0.000E+00    33
BIGSUB  34        0    1.10296E+04    62.699    25.000    33.468    30.779   294.628     0.000     2.030     0.000     5.810     0.004     0.010     0.002     0.003     0.001     0.093     3.780     0.068     0.000 .00000E+00 0.000E+00 0.000E+00 0.000E+00    34
BIGSUB  35        0    1.10086E+04    74.172    22.000    32.626    30.848   349.405     0.000     4.475     0.000     5.084     0.011     0.024     0.004     0.005     0.002     0.409     0.609     0.023     0.000 .00000E+00 0.000E+00 0.000E+00 0.000E+00    35
BIGSUB  36        0    1.45955E+04    75.281    44.000    37.044    26.421   367.151     0.123     1.415     0.006     2.128     0.002     0.004     0.001     0.001     0.001     0.100     0.707     0.017     0.000 .00000E+00 0.000E+00 0.000E+00 0.000E+00    36
BIGSUB  37        0    1.18073E+04   109.276    30.000    35.669    34.503   250.756     1.250     4.087     0.005     7.128     0.006     0.010     0.003     0.003     0.001     0.343     3.035     0.239     0.000 .00000E+00 0.000E+00 0.000E+00 0.000E+00    37
BIGSUB  38        0    1.19872E+04    72.335    45.445    33.944    29.721   287.948     0.000    23.715     0.000    24.266     0.783     2.688     0.029     0.109     0.076     2.222     0.551     0.006     0.000 .00000E+00 0.000E+00 0.000E+00 0.000E+00    38
BIGSUB  39        0    1.25063E+04   103.403    39.998    32.694    31.502   265.425     0.000     3.652     0.000     5.799     0.016     0.046     0.003     0.002     0.001     0.601     2.148     0.019     0.000 .00000E+00 0.000E+00 0.000E+00 0.000E+00    39
BIGSUB  40        0    1.11601E+03   108.782    30.000    35.589    32.953   151.236     0.223     8.550     0.016     8.872     0.050     0.120     0.009     0.011     0.007     0.817     0.304     0.021     0.000 .00000E+00 0.000E+00 0.000E+00 0.000E+00    40
BIGSUB  41        0    1.13841E+04    74.953    26.000    37.460    32.843   242.413     0.005     3.179     0.003     4.166     0.007     0.014     0.003     0.004     0.002     0.149     0.983     0.024     0.000 .00000E+00 0.000E+00 0.000E+00 0.000E+00    41
BIGSUB  42        0    1.20494E+04    74.344    22.000    29.852    27.885   398.469     0.000     3.438     0.000     5.364     0.007     0.010     0.003     0.003     0.001     0.174     1.926     0.032     0.000 .00000E+00 0.000E+00 0.000E+00 0.000E+00    42
BIGSUB  43        0    1.15300E+04    74.022    22.000    29.659    27.955   344.447     0.000     6.427     0.000     8.583     0.020     0.034     0.005     0.007     0.004     0.307     2.156     0.010     0.000 .00000E+00 0.000E+00 0.000E+00 0.000E+00    43
BIGSUB  44        0    1.15396E+04   108.865    30.000    34.083    31.585   129.062    10.325     5.274     1.567     9.507     0.084     0.335     0.005     0.004     0.006     0.800     2.447     0.157     0.000 .00000E+00 0.000E+00 0.000E+00 0.000E+00    44
BIGSUB  45        0    1.15245E+04    98.562    33.000    23.774    21.486   293.743     0.000     9.714     0.000    11.740     0.671     1.427     0.020     0.004     0.022     1.609     2.026     0.035     0.000 .00000E+00 0.000E+00 0.000E+00 0.000E+00    45
BIGSUB  46        0    1.47577E+03    99.460    33.000    24.073    19.762   353.597     0.000     5.961     0.000    13.885     0.214     0.517     0.008     0.004     0.012     0.628     7.925     0.067     0.000 .00000E+00 0.000E+00 0.000E+00 0.000E+00    46
BIGSUB  47        0    1.12481E+04    74.237    22.000    32.760    31.212   334.267     0.000     4.258     0.000     9.395     0.020     0.032     0.004     0.005     0.003     0.422     5.137     0.073     0.000 .00000E+00 0.000E+00 0.000E+00 0.000E+00    47
BIGSUB  48        0    1.19404E+04    75.348    26.000    37.198    32.956   238.488     0.000     2.854     0.000     5.982     0.007     0.014     0.003     0.003     0.001     0.360     3.128     0.125     0.000 .00000E+00 0.000E+00 0.000E+00 0.000E+00    48
BIGSUB  49        0    1.81224E+03    74.892    44.000    41.018    29.582   451.123     0.000     2.042     0.000     2.106     0.003     0.007     0.002     0.002     0.001     0.120     0.065     0.003     0.000 .00000E+00 0.000E+00 0.000E+00 0.000E+00    49
BIGSUB  50        0    1.31092E+04    88.843    60.660    34.231    29.585   380.664     0.000     3.356     0.000     7.390     0.009     0.010     0.003     0.002     0.001     0.503     4.033     0.099     0.000 .00000E+00 0.000E+00 0.000E+00 0.000E+00    50
BIGSUB  51        0    1.29746E+04    94.402    60.663    35.743    31.112   377.215     0.000     3.152     0.000     7.586     0.007     0.010     0.003     0.002     0.001     0.358     4.433     0.092     0.000 .00000E+00 0.000E+00 0.000E+00 0.000E+00    51
BIGSUB  52        0    1.24905E+04    80.372    49.000    32.356    29.718   255.254     0.000     5.859     0.000     7.384     0.072     0.232     0.004     0.006     0.013     0.382     1.525     0.076     0.000 .00000E+00 0.000E+00 0.000E+00 0.000E+00    52
BIGSUB  53        0    1.74981E+04    77.269    21.000    44.857    32.322   273.719     0.000     3.834     0.000     4.644     0.042     0.089     0.003     0.006     0.005     0.267     0.810     0.034     0.000 .00000E+00 0.000E+00 0.000E+00 0.000E+00    53
BIGSUB  54        0    1.24432E+04   103.677    64.611    39.764    36.532   461.460     1.073     2.608     0.019     5.807     0.006     0.011     0.002     0.002     0.001     0.243     3.180     0.157     0.000 .00000E+00 0.000E+00 0.000E+00 0.000E+00    54
BIGSUB  55        0    1.46963E+04    83.020    37.000    40.324    32.966   287.384     0.000     2.180     0.000     8.157     0.004     0.006     0.002     0.001     0.001     0.153     5.976     0.180     0.000 .00000E+00 0.000E+00 0.000E+00 0.000E+00    55
BIGSUB   1        0    2.17853E+04    90.962    24.000    59.779    47.390   129.154     7.988     8.251     0.986    28.936     0.282     0.978     0.012     0.013     0.016     1.232    18.842     1.853     0.130 .00000E+00 0.000E+00 0.000E+00 0.000E+00     1
BIGSUB   2        0    2.18834E+04    94.363    31.000    43.679    35.250   191.470     9.704    14.699     0.720    32.247     0.798     3.106     0.037     0.003     0.041     3.227    16.614     1.685     0.004 .00000E+00 0.000E+00 0.000E+00 0.000E+00     2
BIGSUB   3        0    2.18046E+04    86.818    59.772    36.291    31.028   276.973     0.000    58.133     0.000    58.226     0.972     3.378     0.046     0.011     0.169     3.272     0.094     0.004     0.000 .00000E+00 0.000E+00 0.000E+00 0.000E+00     3
BIGSUB   4        0    2.37698E+03   114.530    60.000    42.981    33.823   134.133    26.578    25.945     3.472    54.801     1.104     1.921     0.046     0.012     0.046     4.609    22.734     1.961     0.911 .00000E+00 0.000E+00 0.000E+00 0.000E+00     4
BIGSUB   5        0    2.16264E+03   114.530    60.000    43.751    33.822   207.364    24.979    21.952     2.341    31.602     0.702     1.264     0.036     0.013     0.030     3.957     6.112     0.494     0.596 .00000E+00 0.000E+00 0.000E+00 0.000E+00     5
BIGSUB   6        0    2.72804E+03    92.428    24.000    46.772    38.075   139.634    17.302    16.192     2.389    36.785     0.714     1.600     0.036     0.007     0.028     3.116    16.174     1.531     0.624 .00000E+00 0.000E+00 0.000E+00 0.000E+00     6
BIGSUB   7        0    2.12444E+04    90.200    59.770    44.819    35.555   274.271     0.000    61.146     0.000    64.495     1.281     5.183     0.058     0.015     0.155     4.215     3.349     0.127     0.000 .00000E+00 0.000E+00 0.000E+00 0.000E+00     7
BIGSUB   8        0    2.12111E+04    99.340    39.937    41.593    37.576   197.147     1.884    22.546     0.050    31.600     3.814    14.460     0.137     0.003     0.060    11.511     9.002     1.041     0.000 .00000E+00 0.000E+00 0.000E+00 0.000E+00     8
BIGSUB   9        0    2.10381E+04    99.460    39.938    41.727    36.812   245.880     1.580    20.282     0.043    27.917     2.817     8.684     0.104     0.003     0.043     8.538     7.590     0.935     0.000 .00000E+00 0.000E+00 0.000E+00 0.000E+00     9
BIGSUB  10        0    2.24562E+04   125.976    69.688    46.258    41.023   246.061     0.361    90.394     0.046    97.615     1.589     5.982     0.078     0.054     0.274     6.072     7.102     0.628     0.020 .00000E+00 0.000E+00 0.000E+00 0.000E+00    10
BIGSUB  11        0    2.16872E+04   127.590    15.920    48.609    46.007   307.769     0.146    53.742     0.004    55.847     5.418    11.879     0.168     0.005     0.137    13.333     2.101     0.037     0.000 .00000E+00 0.000E+00 0.000E+00 0.000E+00    11
BIGSUB  12        0    2.50857E+04   113.977    60.000    40.613    37.246   149.939     0.000    78.650     0.000    80.384     2.512     8.914     0.109     0.062     0.240     8.562     1.734     0.152     0.000 .00000E+00 0.000E+00 0.000E+00 0.000E+00    12
BIGSUB  13        0    2.45584E+04   169.728   115.317    35.675    32.679   339.685    13.200    49.400     0.110    50.364     2.035     6.783     0.086     0.002     0.117     7.706     0.223     0.019     0.015 .00000E+00 0.000E+00 0.000E+00 0.000E+00    13
BIGSUB  14        0    2.34427E+04    83.066    38.553    48.210    39.759   375.477     0.000    42.058     0.000    45.322     1.107     4.572     0.054     0.022     0.121     4.006     3.264     0.184     0.000 .00000E+00 0.000E+00 0.000E+00 0.000E+00    14
BIGSUB  15        0    2.55713E+03   139.646     6.000    52.478    45.208    64.583    56.360    29.624     3.425    51.785     1.082     2.263     0.050     0.006     0.060     4.651    18.629     0.396     0.277 .00000E+00 0.000E+00 0.000E+00 0.000E+00    15
BIGSUB  16        0    2.90746E+03   139.646     6.000    48.934    47.629   385.081     0.000    64.659     0.000    65.868     5.213     8.493     0.156     0.006     0.175    12.201     1.210     0.045     0.000 .00000E+00 0.000E+00 0.000E+00 0.000E+00    16
BIGSUB  17        0    2.71571E+01   115.534    35.000    49.104    37.823   110.402    23.702    43.513     2.382    62.053     2.755     3.746     0.093     0.064     0.096     6.967    15.477     2.437     0.779 .00000E+00 0.000E+00 0.000E+00 0.000E+00    17
BIGSUB  18        0    2.14992E+04   139.646     6.000    46.386    44.726    53.668    57.640    27.196     3.433    50.194     2.164     1.436     0.096     0.003     0.065     8.310    19.454     1.599     0.574 .00000E+00 0.000E+00 0.000E+00 0.000E+00    18
BIGSUB  19        0    2.11194E+04   118.526    47.541    40.076    35.312   404.311    23.555    18.757     1.017    27.796     0.080     0.278     0.013     0.007     0.016     1.112     7.977     0.634     0.090 .00000E+00 0.000E+00 0.000E+00 0.000E+00    19
BIGSUB  20        0    2.10973E+03   118.548    47.537    39.498    35.074   439.934    20.079    11.968     0.879    22.003     0.041     0.163     0.014     0.019     0.008     0.814     9.118     0.796     0.067 .00000E+00 0.000E+00 0.000E+00 0.000E+00    20
BIGSUB  21        0    2.22421E+04    95.991    75.580    42.217    33.604   253.551    20.845    38.381    12.745    59.780     1.800     8.554     0.082     0.008     0.110     6.768     6.394     0.543     4.470 .00000E+00 0.000E+00 0.000E+00 0.000E+00    21
BIGSUB  22        0    2.42091E+03   118.333    47.460    42.251    37.286   328.859    31.328    15.000     1.263    29.377     0.071     0.288     0.014     0.011     0.013     1.263    13.060     1.081     0.102 .00000E+00 0.000E+00 0.000E+00 0.000E+00    22
BIGSUB  23        0    2.17889E+04   199.925    59.697    35.015    33.826   406.758    70.810    25.825     5.431    50.775     2.987    23.582     0.089     0.004     0.055    13.685    16.773     1.068     1.019 .00000E+00 0.000E+00 0.000E+00 0.000E+00    23
BIGSUB  24        0    2.16748E+04   115.534    35.000    49.112    38.842   114.963    22.399    34.718     2.743    59.315     2.187     1.096     0.089     0.010     0.065     7.133    21.019     2.082     0.759 .00000E+00 0.000E+00 0.000E+00 0.000E+00    24
BIGSUB  25        0    2.44689E+03    98.343    54.524    43.438    34.144   322.838     3.782    20.953     0.686    23.180     0.841     3.915     0.043     0.008     0.065     3.203     1.435     0.095     0.131 .00000E+00 0.000E+00 0.000E+00 0.000E+00    25
BIGSUB  26        0    2.12102E+04   141.655    66.937    44.737    40.767   171.305    86.595    43.189     0.514    54.232     2.446     4.815     0.122     0.005     0.103     9.143    10.500     0.607     0.075 .00000E+00 0.000E+00 0.000E+00 0.000E+00    26
BIGSUB  27        0    2.48653E+04   134.509    40.444    49.599    36.940   146.263    28.111    11.882     3.592    27.365     0.058     0.222     0.007     0.003     0.008     1.576     7.122     0.568     0.999 .00000E+00 0.000E+00 0.000E+00 0.000E+00    27
BIGSUB  28        0    2.18591E+04    96.446    75.766    35.805    29.527   246.458    56.560    18.969     5.285    30.389     0.694     1.831     0.028     0.004     0.041     2.180     4.587     0.271     1.104 .00000E+00 0.000E+00 0.000E+00 0.000E+00    28
BIGSUB  29        0    2.35664E+04    98.188    54.367    50.054    38.301   366.988     0.267    17.010     0.058    18.832     0.294     1.248     0.016     0.005     0.048     1.472     1.755     0.105     0.000 .00000E+00 0.000E+00 0.000E+00 0.000E+00    29
BIGSUB  30        0    2.19013E+04   165.674    42.750    48.215    43.414   263.427    44.325    16.063     0.745    49.108     1.020     4.418     0.040     0.003     0.035     3.797    29.231     2.807     0.144 .00000E+00 0.000E+00 0.000E+00 0.000E+00    30
BIGSUB  31        0    2.21681E+04   162.508    41.000    49.595    47.703   184.042    53.603    26.144     0.813    65.980     1.494     8.051     0.077     0.003     0.068     6.277    34.784     3.450     0.229 .00000E+00 0.000E+00 0.000E+00 0.000E+00    31
BIGSUB  32        0    2.15204E+04   141.655    64.483    46.344    42.340   150.599    74.932    51.303     0.529    66.278     3.528     7.701     0.167     0.003     0.147    12.314    14.419     0.755     0.075 .00000E+00 0.000E+00 0.000E+00 0.000E+00    32
BIGSUB  33        0    2.20281E+04   104.266    59.000    48.542    36.730   233.101    46.842     8.954    17.654    30.312     0.077     0.471     0.007     0.003     0.013     0.412     2.806     0.146     3.965 .00000E+00 0.000E+00 0.000E+00 0.000E+00    33
BIGSUB  34        0    2.10296E+04   103.503    59.000    46.510    40.735   313.800    11.612    20.235     2.883    35.366     0.229     0.872     0.016     0.006     0.050     1.116    12.135     1.140     0.726 .00000E+00 0.000E+00 0.000E+00 0.000E+00    34
BIGSUB  35        0    2.10086E+04   135.313    23.377    53.692    51.578   395.157    18.144    15.088     2.141    21.649     0.036     0.088     0.011     0.007     0.007     1.436     4.385     0.330     0.390 .00000E+00 0.000E+00 0.000E+00 0.000E+00    35
BIGSUB  36        0    2.45955E+04   104.390    48.445    50.434    37.412   421.989     0.569     3.376     0.013     6.673     0.007     0.008     0.002     0.001     0.002     0.294     3.284     0.288     0.000 .00000E+00 0.000E+00 0.000E+00 0.000E+00    36
BIGSUB  37        0    2.18073E+04   122.309    18.000    48.900    46.958   267.832    23.934     9.606     4.054    38.039     0.096     0.023     0.010     0.004     0.007     1.011    24.295     2.161     0.644 .00000E+00 0.000E+00 0.000E+00 0.000E+00    37
BIGSUB  38        0    2.19872E+04    99.460    53.514    44.556    39.496   293.687     0.000    62.040     0.000    63.089     1.876     8.184     0.085     0.093     0.195     6.510     1.049     0.053     0.000 .00000E+00 0.000E+00 0.000E+00 0.000E+00    38
BIGSUB  39        0    2.25063E+04   112.438    15.000    52.824    50.304   281.253    21.008     7.793     4.026    29.414     0.044     0.282     0.006     0.002     0.007     1.033    17.512     2.388     0.156 .00000E+00 0.000E+00 0.000E+00 0.000E+00    39
BIGSUB  40        0    2.11601E+03   121.756    18.000    47.307    43.519   122.197    90.945    11.863    10.385    26.320     0.242     0.552     0.017     0.012     0.015     1.582     2.714     0.172     2.080 .00000E+00 0.000E+00 0.000E+00 0.000E+00    40
BIGSUB  41        0    2.13841E+04   114.928    64.000    50.065    39.200   254.926    50.646     9.153    23.301    39.276     0.185     0.463     0.011     0.005     0.013     0.773     3.646     0.241     7.019 .00000E+00 0.000E+00 0.000E+00 0.000E+00    41
BIGSUB  42        0    2.20494E+04   135.627    23.512    50.474    47.792   436.405    28.513     9.996     8.146    36.053     0.097     0.223     0.007     0.003     0.008     0.641     9.788     0.590     2.338 .00000E+00 0.000E+00 0.000E+00 0.000E+00    42
BIGSUB  43        0    2.15300E+04   135.041    23.489    49.865    48.100   399.326     5.963    16.055     1.692    27.595     0.055     0.094     0.010     0.006     0.009     0.892     8.187     0.426     0.576 .00000E+00 0.000E+00 0.000E+00 0.000E+00    43
BIGSUB  44        0    2.15396E+04   121.848    18.000    46.345    41.283    89.530    94.583     8.913    13.198    38.780     0.332     1.571     0.017     0.003     0.017     1.791    14.725     0.544     1.886 .00000E+00 0.000E+00 0.000E+00 0.000E+00    44
BIGSUB  45        0    2.15245E+04   152.323    36.875    39.856    35.452   305.597    50.125    45.965    22.716    85.585     4.778    10.194     0.132     0.006     0.125    10.354     8.279     0.481     5.579 .00000E+00 0.000E+00 0.000E+00 0.000E+00    45
BIGSUB  46        0    2.47577E+03   153.711    36.875    40.294    32.535   369.414    40.611    32.954    13.006    78.550     2.712     6.349     0.079     0.006     0.090     6.100    31.144     1.478     3.957 .00000E+00 0.000E+00 0.000E+00 0.000E+00    46
BIGSUB  47        0    2.12481E+04   135.433    23.378    53.810    51.863   361.838    21.291    11.082     6.094    45.269     0.083     0.145     0.008     0.004     0.007     1.177    22.003     1.321     1.974 .00000E+00 0.000E+00 0.000E+00 0.000E+00    47
BIGSUB  48        0    2.19404E+04   115.534    64.000    49.486    39.248   252.557    41.231     8.298    19.030    41.508     0.165     0.540     0.011     0.003     0.012     1.273    11.559     0.856     5.338 .00000E+00 0.000E+00 0.000E+00 0.000E+00    48
BIGSUB  49        0    2.81224E+03   103.850    48.317    55.702    40.566   497.652    12.027     4.606     0.180     4.904     0.006     0.021     0.004     0.003     0.002     0.355     0.114     0.005     0.000 .00000E+00 0.000E+00 0.000E+00 0.000E+00    49
BIGSUB  50        0    2.31092E+04   108.691    67.492    48.712    43.821   418.324    12.291     5.821     3.801    22.257     0.064     0.144     0.005     0.002     0.003     0.851    12.633     0.799     0.480 .00000E+00 0.000E+00 0.000E+00 0.000E+00    50
BIGSUB  51        0    2.29746E+04   115.492    67.494    50.778    46.229   412.932    16.758     5.335     5.187    20.269     0.017     0.038     0.004     0.002     0.003     0.558     9.744     0.491     0.800 .00000E+00 0.000E+00 0.000E+00 0.000E+00    51
BIGSUB  52        0    2.24905E+04   106.492    45.574    44.523    40.442   266.539    15.835    36.388     7.063    46.674     0.611     2.753     0.031     0.008     0.110     2.420     3.119     0.154     1.690 .00000E+00 0.000E+00 0.000E+00 0.000E+00    52
BIGSUB  53        0    2.74981E+04   113.394    51.998    64.183    41.001   294.223    17.286    31.651     6.006    41.968     0.962     2.479     0.048     0.003     0.085     3.657     3.473     0.275     1.829 .00000E+00 0.000E+00 0.000E+00 0.000E+00    53
BIGSUB  54        0    2.24432E+04   141.560    73.998    51.894    47.397   527.931    11.721     9.049     0.397    16.850     0.122     0.310     0.009     0.003     0.014     0.964     7.390     0.291     0.000 .00000E+00 0.000E+00 0.000E+00 0.000E+00    54
BIGSUB  55        0    2.46963E+04   165.039    34.000    54.473    44.942   312.882    61.617     9.824    24.332    60.107     0.395     0.546     0.016     0.002     0.013     1.367    22.752     1.129     7.906 .00000E+00 0.000E+00 0.000E+00 0.000E+00    55
BIGSUB   1        0    3.17853E+04    42.515     0.000    93.529    50.355   117.019     0.000     0.868     1.328     8.410     0.002     0.016     0.000     0.006     0.000     0.135     3.749     0.039     0.105 .00000E+00 0.000E+00 0.000E+00 0.000E+00     1
BIGSUB   2        0    3.18834E+04    50.193     0.000    84.825    52.369   184.346     0.005     0.763     1.586     7.848     0.003     0.004     0.001     0.001     0.000     0.119     4.440     0.026     0.008 .00000E+00 0.000E+00 0.000E+00 0.000E+00     2
BIGSUB   3        0    3.18046E+04    92.606     0.000    86.325    83.706   279.417     0.000     5.158     0.000     5.504     0.036     0.094     0.004     0.003     0.006     0.251     0.346     0.009     0.000 .00000E+00 0.000E+00 0.000E+00 0.000E+00     3
BIGSUB   4        0    3.37698E+03    54.251     0.000    89.676    49.978   130.310     0.283     4.367     4.060    21.031     0.044     0.064     0.006     0.006     0.003     0.814     4.805     0.141     0.502 .00000E+00 0.000E+00 0.000E+00 0.000E+00     4
BIGSUB   5        0    3.16264E+03    54.251     0.000    89.221    51.643   203.357     0.009     4.732     4.340    20.669     0.036     0.054     0.007     0.007     0.003     0.880     4.215     0.234     0.655 .00000E+00 0.000E+00 0.000E+00 0.000E+00     5
BIGSUB   6        0    3.72804E+03    43.200     0.000    89.244    48.345   128.892     0.159     2.197     2.630    13.804     0.015     0.029     0.004     0.004     0.002     0.381     3.851     0.060     0.270 .00000E+00 0.000E+00 0.000E+00 0.000E+00     6
BIGSUB   7        0    3.12444E+04    96.214     0.000    96.838    82.330   277.349     0.000     8.443     0.000    14.703     0.063     0.589     0.009     0.004     0.018     0.603     6.260     0.072     0.000 .00000E+00 0.000E+00 0.000E+00 0.000E+00     7
BIGSUB   8        0    3.12111E+04    34.117     0.000    90.266    56.641   170.574     0.000     0.981     0.179     5.607     0.011     0.032     0.001     0.001     0.000     0.327     4.429     0.082     0.000 .00000E+00 0.000E+00 0.000E+00 0.000E+00     8
BIGSUB   9        0    3.10381E+04    34.158     0.000    90.412    55.142   220.759     0.000     1.695     0.150     5.037     0.017     0.025     0.002     0.001     0.001     0.295     3.177     0.041     0.000 .00000E+00 0.000E+00 0.000E+00 0.000E+00     9
BIGSUB  10        0    3.24562E+04    60.988     0.000    97.580    93.714   204.269     0.000     6.171     0.005    14.230     0.009     0.303     0.004     0.004     0.014     0.361     7.871     0.095     0.000 .00000E+00 0.000E+00 0.000E+00 0.000E+00    10
BIGSUB  11        0    3.16872E+04    51.237     0.000    89.859    79.400   271.882     0.000     2.338     0.008     6.637     0.009     0.012     0.002     0.003     0.001     0.240     4.288     0.008     0.000 .00000E+00 0.000E+00 0.000E+00 0.000E+00    11
BIGSUB  12        0    3.50857E+04    53.989     0.000    84.505    66.207   132.302     0.000    13.801     0.000    17.082     0.087     1.146     0.014     0.021     0.041     1.061     3.281     0.087     0.000 .00000E+00 0.000E+00 0.000E+00 0.000E+00    12
BIGSUB  13        0    3.45584E+04    67.289     0.000    91.835    89.657   307.925     5.766     8.531     0.338    12.855     0.112     1.600     0.018     0.001     0.018     1.465     0.424     0.024     0.035 .00000E+00 0.000E+00 0.000E+00 0.000E+00    13
BIGSUB  14        0    3.34427E+04    79.063     0.000    96.925    75.272   371.339     0.000     4.255     0.000     9.116     0.035     0.459     0.006     0.003     0.008     0.532     4.861     0.019     0.000 .00000E+00 0.000E+00 0.000E+00 0.000E+00    14
BIGSUB  15        0    3.55713E+03    48.223     0.000   107.150    63.490    47.087     4.963     1.775     6.934    10.018     0.009     0.016     0.002     0.003     0.001     0.223     0.994     0.006     0.285 .00000E+00 0.000E+00 0.000E+00 0.000E+00    15
BIGSUB  16        0    3.90746E+03    48.223     0.000   102.542    97.144   332.285     0.000     2.548     0.000     4.031     0.010     0.012     0.003     0.003     0.001     0.226     1.483     0.032     0.000 .00000E+00 0.000E+00 0.000E+00 0.000E+00    16
BIGSUB  17        0    3.71571E+01    47.218     0.000   111.070    53.724    98.089     0.940     4.814     5.514    14.638     0.034     0.112     0.011     0.031     0.004     0.659     1.332     0.043     0.959 .00000E+00 0.000E+00 0.000E+00 0.000E+00    17
BIGSUB  18        0    3.14992E+04    48.223     0.000    97.476    62.823    32.834     3.233     1.639     7.153    11.628     0.018     0.007     0.002     0.002     0.001     0.303     2.513     0.088     0.687 .00000E+00 0.000E+00 0.000E+00 0.000E+00    18
BIGSUB  19        0    3.11194E+04    65.290     0.000    93.575    91.550   361.982     0.208     6.623     1.944    17.587     0.020     0.052     0.006     0.006     0.004     0.464     8.867     0.088     0.175 .00000E+00 0.000E+00 0.000E+00 0.000E+00    19
BIGSUB  20        0    3.10973E+03    65.302     0.000    93.043    91.906   398.983     0.334     4.609     1.657    14.594     0.009     0.040     0.007     0.012     0.003     0.399     8.197     0.067     0.133 .00000E+00 0.000E+00 0.000E+00 0.000E+00    20
BIGSUB  21        0    3.22421E+04    69.993     0.000    89.865    62.635   254.354     0.059     2.968     0.132     9.710     0.021     0.034     0.003     0.002     0.001     0.486     3.438     0.039     0.000 .00000E+00 0.000E+00 0.000E+00 0.000E+00    21
BIGSUB  22        0    3.42091E+03    65.184     0.000    92.050    90.472   292.476     0.396     5.339     2.594    13.828     0.020     0.068     0.007     0.008     0.004     0.562     5.694     0.049     0.192 .00000E+00 0.000E+00 0.000E+00 0.000E+00    22
BIGSUB  23        0    3.17889E+04    54.251     0.000    84.416    80.190   371.545     0.993     1.938    11.638    41.358     0.016     0.028     0.002     0.001     0.001     0.367    13.604     0.420     1.751 .00000E+00 0.000E+00 0.000E+00 0.000E+00    23
BIGSUB  24        0    3.16748E+04    47.218     0.000   108.455    53.713   102.203     0.309     4.593     4.905    15.004     0.035     0.052     0.005     0.005     0.003     0.514     2.716     0.012     0.589 .00000E+00 0.000E+00 0.000E+00 0.000E+00    24
BIGSUB  25        0    3.44689E+03    85.297     0.000    98.410    67.674   327.963     5.924     2.217     2.425     8.828     0.039     0.151     0.003     0.004     0.003     0.269     3.229     0.087     0.227 .00000E+00 0.000E+00 0.000E+00 0.000E+00    25
BIGSUB  26        0    3.12102E+04    52.242     0.000   102.543    90.040   105.931    24.046     2.178     2.345     7.478     0.003     0.014     0.003     0.003     0.001     0.147     2.851     0.096     0.344 .00000E+00 0.000E+00 0.000E+00 0.000E+00    26
BIGSUB  27        0    3.48653E+04    29.110     0.000    99.328    30.886   134.890     6.438     1.134     3.917    21.280     0.005     0.021     0.001     0.001     0.001     0.150     2.807     0.105     0.480 .00000E+00 0.000E+00 0.000E+00 0.000E+00    27
BIGSUB  28        0    3.18591E+04    70.325     0.000    84.665    63.461   246.082     3.051     3.757    13.526    28.139     0.012     0.015     0.003     0.002     0.001     0.311     3.436     0.129     1.565 .00000E+00 0.000E+00 0.000E+00 0.000E+00    28
BIGSUB  29        0    3.35664E+04    85.163     0.000   113.720    72.830   370.626     0.266     2.897     0.141     7.397     0.010     0.032     0.002     0.002     0.002     0.415     4.295     0.056     0.000 .00000E+00 0.000E+00 0.000E+00 0.000E+00    29
BIGSUB  30        0    3.19013E+04    53.216     0.000    98.662    63.562   244.171     3.099     1.344     1.369    22.190     0.010     0.028     0.002     0.001     0.001     0.236     7.799     0.219     0.221 .00000E+00 0.000E+00 0.000E+00 0.000E+00    30
BIGSUB  31        0    3.21681E+04    50.157     0.000    97.662    72.146   153.876     4.173     1.246     1.899    22.346     0.010     0.026     0.001     0.001     0.001     0.201     5.771     0.169     0.413 .00000E+00 0.000E+00 0.000E+00 0.000E+00    31
BIGSUB  32        0    3.15204E+04    52.242     0.000   103.149    89.794    80.977    27.289     1.295     2.222     9.684     0.004     0.053     0.002     0.002     0.001     0.171     6.070     0.134     0.278 .00000E+00 0.000E+00 0.000E+00 0.000E+00    32
BIGSUB  33        0    3.20281E+04    75.192     0.000   112.164    71.075   230.893     0.402     2.846    14.584    21.748     0.003     0.007     0.002     0.002     0.001     0.060     2.374     0.022     1.044 .00000E+00 0.000E+00 0.000E+00 0.000E+00    33
BIGSUB  34        0    3.10296E+04    74.642     0.000   105.635    77.282   298.793     0.000     3.401     4.703    16.829     0.004     0.017     0.003     0.003     0.002     0.162     8.226     0.024     0.000 .00000E+00 0.000E+00 0.000E+00 0.000E+00    34
BIGSUB  35        0    3.10086E+04    53.123     0.000   112.056    97.015   344.836     1.123     4.180     4.166     9.532     0.012     0.024     0.004     0.004     0.002     0.430     1.038     0.032     0.120 .00000E+00 0.000E+00 0.000E+00 0.000E+00    35
BIGSUB  36        0    3.45955E+04    92.345     0.000   101.771    65.885   438.217     1.967     1.960     0.051     6.739     0.003     0.005     0.002     0.001     0.001     0.152     4.725     0.271     0.000 .00000E+00 0.000E+00 0.000E+00 0.000E+00    36
BIGSUB  37        0    3.18073E+04    40.101     0.000   112.542    90.834   213.226     0.672     1.923     5.414    10.603     0.002     0.006     0.002     0.002     0.001     0.163     3.060     0.072     0.293 .00000E+00 0.000E+00 0.000E+00 0.000E+00    37
BIGSUB  38        0    3.19872E+04    95.441     0.000   102.526    96.333   276.246     0.000     9.211     0.000    14.767     0.186     1.168     0.013     0.021     0.022     1.047     5.556     0.041     0.000 .00000E+00 0.000E+00 0.000E+00 0.000E+00    38
BIGSUB  39        0    3.25063E+04    49.191     0.000   105.981    91.673   235.038     0.000     1.754     4.225     8.974     0.007     0.027     0.002     0.001     0.001     0.295     2.818     0.015     0.001 .00000E+00 0.000E+00 0.000E+00 0.000E+00    39
BIGSUB  40        0    3.11601E+03    39.920     0.000   107.713    65.031    85.511     8.972     2.058    17.057    24.168     0.004     0.014     0.003     0.005     0.001     0.211     1.287     0.048     1.728 .00000E+00 0.000E+00 0.000E+00 0.000E+00    40
BIGSUB  41        0    3.13841E+04    75.952     0.000   111.898    71.468   254.934     0.029     3.663    10.206    21.736     0.010     0.016     0.003     0.003     0.002     0.207     1.428     0.018     1.180 .00000E+00 0.000E+00 0.000E+00 0.000E+00    41
BIGSUB  42        0    3.20494E+04    53.246     0.000   109.064   101.027   383.260     0.160     2.819     1.187    14.933     0.006     0.010     0.002     0.002     0.001     0.185     3.239     0.064     0.051 .00000E+00 0.000E+00 0.000E+00 0.000E+00    42
BIGSUB  43        0    3.15300E+04    53.016     0.000   104.972    94.031   350.124     0.014     5.265     0.244    10.562     0.018     0.034     0.004     0.005     0.003     0.336     3.422     0.057     0.004 .00000E+00 0.000E+00 0.000E+00 0.000E+00    43
BIGSUB  44        0    3.15396E+04    39.950     0.000   104.081    58.321    65.349     3.693     1.083    17.857    26.323     0.006     0.018     0.001     0.001     0.001     0.164     3.183     0.063     1.215 .00000E+00 0.000E+00 0.000E+00 0.000E+00    44
BIGSUB  45        0    3.15245E+04    95.575     0.000    93.447    89.378   302.645     0.850     3.605     2.484    21.508     0.010     0.016     0.003     0.003     0.001     0.412     4.703     0.076     0.334 .00000E+00 0.000E+00 0.000E+00 0.000E+00    45
BIGSUB  46        0    3.47577E+03    96.446     0.000    94.378    66.356   368.816     9.005     2.961    13.415    36.761     0.012     0.031     0.003     0.004     0.002     0.257    16.577     0.056     2.970 .00000E+00 0.000E+00 0.000E+00 0.000E+00    46
BIGSUB  47        0    3.12481E+04    53.170     0.000   112.173    98.034   307.585     0.035     3.475     0.804    15.866     0.019     0.030     0.003     0.003     0.002     0.385     5.877     0.016     0.003 .00000E+00 0.000E+00 0.000E+00 0.000E+00    47
BIGSUB  48        0    3.19404E+04    76.353     0.000   111.899    71.899   249.392     0.000     3.287     8.455    21.096     0.010     0.015     0.003     0.002     0.001     0.431     4.135     0.027     0.372 .00000E+00 0.000E+00 0.000E+00 0.000E+00    48
BIGSUB  49        0    3.81224E+03    91.868     0.000   106.798    67.509   509.898     7.952     2.946     0.793     4.029     0.005     0.020     0.003     0.003     0.001     0.195     0.247     0.008     0.000 .00000E+00 0.000E+00 0.000E+00 0.000E+00    49
BIGSUB  50        0    3.31092E+04    61.434     0.000   109.759    87.775   381.180     0.074     2.755     4.817    13.330     0.007     0.007     0.002     0.001     0.001     0.304     5.749     0.024     0.020 .00000E+00 0.000E+00 0.000E+00 0.000E+00    50
BIGSUB  51        0    3.29746E+04    65.278     0.000   115.766    87.553   380.701     0.259     2.586     6.585    15.202     0.006     0.007     0.002     0.001     0.001     0.239     6.018     0.035     0.062 .00000E+00 0.000E+00 0.000E+00 0.000E+00    51
BIGSUB  52        0    3.24905E+04    76.353     0.000    99.760    75.953   260.141     0.056     2.867     6.396    12.833     0.010     0.031     0.002     0.002     0.002     0.248     3.229     0.040     0.000 .00000E+00 0.000E+00 0.000E+00 0.000E+00    52
BIGSUB  53        0    3.74981E+04    74.258     0.000   128.852    46.261   303.059    12.008     4.339     6.061    14.885     0.046     0.095     0.003     0.001     0.005     0.313     2.640     0.123     0.432 .00000E+00 0.000E+00 0.000E+00 0.000E+00    53
BIGSUB  54        0    3.24432E+04    62.805     0.000   120.447   102.082   483.828     0.005     1.703     0.711     5.303     0.002     0.006     0.001     0.001     0.001     0.130     2.840     0.028     0.000 .00000E+00 0.000E+00 0.000E+00 0.000E+00    54
BIGSUB  55        0    3.46963E+04    53.013     0.000   128.142    71.551   289.068     0.075     1.711    14.749    27.376     0.003     0.004     0.001     0.001     0.000     0.122     5.567     0.013     2.185 .00000E+00 0.000E+00 0.000E+00 0.000E+00    55
BIGSUB   1        0    4.17853E+04    60.312     0.000   144.622    71.971    98.295     0.002     1.653     0.398     8.814     0.003     0.023     0.001     0.009     0.000     0.242     5.293     0.009     0.000 .00000E+00 0.000E+00 0.000E+00 0.000E+00     1
BIGSUB   2        0    4.18834E+04    53.204     0.000   129.203    67.837   164.450     0.020     0.936     1.005     7.421     0.004     0.005     0.001     0.001     0.000     0.173     4.476     0.008     0.000 .00000E+00 0.000E+00 0.000E+00 0.000E+00     2
BIGSUB   3        0    4.18046E+04   151.449     0.000   152.331   132.950   267.519     0.052    29.579     0.034    30.069     0.363     1.120     0.019     0.033     0.062     1.388     0.453     0.004     0.011 .00000E+00 0.000E+00 0.000E+00 0.000E+00     3
BIGSUB   4        0    4.37698E+03    82.381     0.000   134.200    67.583   123.123     4.005     8.890     2.017    25.057     0.083     0.127     0.010     0.009     0.006     1.654     8.854     0.151     0.015 .00000E+00 0.000E+00 0.000E+00 0.000E+00     4
BIGSUB   5        0    4.16264E+03    82.381     0.000   134.385    70.991   195.287     4.950     9.579     2.270    21.926     0.062     0.100     0.011     0.010     0.005     1.659     4.558     0.111     0.001 .00000E+00 0.000E+00 0.000E+00 0.000E+00     5
BIGSUB   6        0    4.72804E+03    61.283     0.000   135.887    67.232   113.515     0.163     4.173     0.826    13.151     0.025     0.051     0.005     0.005     0.003     0.736     5.148     0.011     0.000 .00000E+00 0.000E+00 0.000E+00 0.000E+00     6
BIGSUB   7        0    4.12444E+04   157.349     0.000   161.952   122.715   268.358     0.000    22.485     0.000    33.748     0.324     1.086     0.014     0.005     0.045     0.981    11.263     0.052     0.000 .00000E+00 0.000E+00 0.000E+00 0.000E+00     7
BIGSUB   8        0    4.12111E+04    79.272     4.000   124.164    75.464   162.584     0.000     3.190     0.154    11.062     0.042     0.116     0.003     0.002     0.001     1.150     7.696     0.010     0.000 .00000E+00 0.000E+00 0.000E+00 0.000E+00     8
BIGSUB   9        0    4.10381E+04    79.367     4.000   124.474    74.979   212.698     0.000     5.521     0.129    11.882     0.061     0.091     0.005     0.003     0.003     1.042     6.214     0.007     0.000 .00000E+00 0.000E+00 0.000E+00 0.000E+00     9
BIGSUB  10        0    4.24562E+04    94.982     0.000   149.079   118.917   165.290     0.000     4.256     0.000    13.832     0.009     0.024     0.003     0.003     0.002     0.424     9.536     0.014     0.000 .00000E+00 0.000E+00 0.000E+00 0.000E+00    10
BIGSUB  11        0    4.16872E+04    69.321     0.000   140.451   101.060   227.392     0.000     4.486     0.007    12.523     0.017     0.023     0.003     0.003     0.002     0.601     8.027     0.008     0.000 .00000E+00 0.000E+00 0.000E+00 0.000E+00    11
BIGSUB  12        0    4.50857E+04    81.983     0.000   128.916    87.211   113.937     0.000     7.656     0.000    12.985     0.089     0.407     0.006     0.016     0.014     0.598     5.329     0.050     0.000 .00000E+00 0.000E+00 0.000E+00 0.000E+00    12
BIGSUB  13        0    4.45584E+04    97.418     0.000   123.901   116.911   280.049     2.602     5.055     0.283     9.958     0.021     0.155     0.003     0.001     0.002     0.474     0.341     0.014     0.012 .00000E+00 0.000E+00 0.000E+00 0.000E+00    13
BIGSUB  14        0    4.34427E+04    94.075     0.000   166.375   106.653   346.606     0.000     5.130     0.000    12.698     0.054     0.218     0.004     0.004     0.006     0.438     7.568     0.017     0.000 .00000E+00 0.000E+00 0.000E+00 0.000E+00    14
BIGSUB  15        0    4.55713E+03    60.279     0.000   148.303    74.251    35.534     3.699     2.926     6.437    10.321     0.013     0.023     0.003     0.013     0.001     0.375     0.602     0.003     0.025 .00000E+00 0.000E+00 0.000E+00 0.000E+00    15
BIGSUB  16        0    4.90746E+03    60.279     0.000   142.611   110.690   275.758     0.000     4.043     0.000     6.004     0.013     0.016     0.003     0.003     0.002     0.359     1.961     0.014     0.000 .00000E+00 0.000E+00 0.000E+00 0.000E+00    16
BIGSUB  17        0    4.71571E+01    69.321     0.000   167.153    71.418    81.173     3.542     9.728     3.773    19.506     0.110     0.211     0.017     0.039     0.007     1.987     3.219     0.202     0.001 .00000E+00 0.000E+00 0.000E+00 0.000E+00    17
BIGSUB  18        0    4.14992E+04    60.279     0.000   139.450    68.353    21.240     0.444     2.629     6.323     9.827     0.027     0.011     0.003     0.002     0.001     0.488     0.517     0.004     0.002 .00000E+00 0.000E+00 0.000E+00 0.000E+00    18
BIGSUB  19        0    4.11194E+04    60.267     0.000   156.038   124.777   281.186     0.000     8.251     1.717    19.383     0.026     0.063     0.006     0.005     0.004     0.596     9.243     0.018     0.000 .00000E+00 0.000E+00 0.000E+00 0.000E+00    19
BIGSUB  20        0    4.10973E+03    60.279     0.000   155.618   132.008   313.085     0.000     5.981     1.467    16.723     0.013     0.038     0.006     0.010     0.003     0.587     9.128     0.020     0.000 .00000E+00 0.000E+00 0.000E+00 0.000E+00    20
BIGSUB  21        0    4.22421E+04    75.993     0.000   133.320    81.078   222.594    14.753     4.991     8.070    23.842     0.064     0.204     0.004     0.002     0.005     0.583     7.380     0.168     1.493 .00000E+00 0.000E+00 0.000E+00 0.000E+00    21
BIGSUB  22        0    4.42091E+03    60.169     0.000   146.707   115.397   225.916     0.000     6.812     2.293    14.391     0.029     0.086     0.006     0.006     0.004     0.760     5.057     0.010     0.000 .00000E+00 0.000E+00 0.000E+00 0.000E+00    22
BIGSUB  23        0    4.17889E+04    79.367     3.000   117.714   100.659   335.411     0.000     3.568     5.560    31.981     0.038     0.060     0.003     0.002     0.001     0.768    11.324     0.048     0.001 .00000E+00 0.000E+00 0.000E+00 0.000E+00    23
BIGSUB  24        0    4.16748E+04    69.321     0.000   159.236    70.099    85.840     2.531     9.372     3.148    20.483     0.105     0.130     0.008     0.008     0.005     1.328     5.542     0.094     0.006 .00000E+00 0.000E+00 0.000E+00 0.000E+00    24
BIGSUB  25        0    4.44689E+03    80.280     0.000   164.810    96.430   305.151     0.429     3.355     2.839    11.429     0.074     0.338     0.005     0.004     0.006     0.380     3.561     0.035     0.194 .00000E+00 0.000E+00 0.000E+00 0.000E+00    25
BIGSUB  26        0    4.12102E+04    87.404     0.000   140.561   102.179    85.020     1.892     4.364     3.957     9.717     0.006     0.012     0.004     0.003     0.001     0.252     1.265     0.034     0.562 .00000E+00 0.000E+00 0.000E+00 0.000E+00    26
BIGSUB  27        0    4.48653E+04    58.220     0.000   140.247    47.677   125.254    12.795     4.141     2.538    17.412     0.018     0.047     0.003     0.001     0.001     0.668     2.511     0.057     0.162 .00000E+00 0.000E+00 0.000E+00 0.000E+00    27
BIGSUB  28        0    4.18591E+04    76.353     0.000   135.900    86.665   209.818    19.865     4.934    11.400    28.461     0.011     0.016     0.003     0.002     0.002     0.328     4.515     0.084     1.337 .00000E+00 0.000E+00 0.000E+00 0.000E+00    28
BIGSUB  29        0    4.35664E+04    80.154     0.000   174.878    97.410   345.352     0.003     3.162     0.120     8.540     0.013     0.031     0.002     0.002     0.002     0.368     5.178     0.013     0.000 .00000E+00 0.000E+00 0.000E+00 0.000E+00    29
BIGSUB  30        0    4.19013E+04    79.323     0.000   134.200    83.357   229.436     0.332     2.634     0.798    21.813     0.028     0.063     0.003     0.002     0.001     0.535     7.944     0.034     0.012 .00000E+00 0.000E+00 0.000E+00 0.000E+00    30
BIGSUB  31        0    4.21681E+04    87.273     0.000   136.982    94.501   137.734     0.026     3.163     1.300    22.340     0.035     0.079     0.003     0.002     0.001     0.628     6.041     0.036     0.193 .00000E+00 0.000E+00 0.000E+00 0.000E+00    31
BIGSUB  32        0    4.15204E+04    87.404     0.000   140.299    99.320    63.666     2.456     2.393     3.788     8.159     0.009     0.011     0.002     0.002     0.001     0.341     1.852     0.039     0.460 .00000E+00 0.000E+00 0.000E+00 0.000E+00    32
BIGSUB  33        0    4.20281E+04    69.176     0.000   176.077    95.521   198.637     0.000     3.694     5.297    12.739     0.003     0.005     0.002     0.002     0.001     0.057     2.620     0.004     0.000 .00000E+00 0.000E+00 0.000E+00 0.000E+00    33
BIGSUB  34        0    4.10296E+04    68.670     0.000   166.012    96.703   258.462     0.000     4.147     1.612    14.707     0.004     0.012     0.003     0.003     0.002     0.159     8.626     0.004     0.000 .00000E+00 0.000E+00 0.000E+00 0.000E+00    34
BIGSUB  35        0    4.10086E+04    64.148     0.000   156.884   117.252   283.492     0.468     7.444     3.166    11.927     0.017     0.038     0.005     0.004     0.003     0.659     1.165     0.014     0.067 .00000E+00 0.000E+00 0.000E+00 0.000E+00    35
BIGSUB  36        0    4.45955E+04    89.334     0.000   160.542    80.359   429.000     8.627     3.015     0.222     9.035     0.004     0.007     0.002     0.001     0.001     0.239     5.787     0.204     0.000 .00000E+00 0.000E+00 0.000E+00 0.000E+00    36
BIGSUB  37        0    4.18073E+04    74.188     0.000   151.569   100.008   180.275     0.000     3.835     3.900    11.189     0.005     0.009     0.003     0.003     0.001     0.306     3.258     0.012     0.000 .00000E+00 0.000E+00 0.000E+00 0.000E+00    37
BIGSUB  38        0    4.19872E+04    73.339     0.000   165.814   113.390   217.563     0.000    13.269     0.000    19.723     0.314     1.249     0.013     0.040     0.032     1.052     6.453     0.027     0.000 .00000E+00 0.000E+00 0.000E+00 0.000E+00    38
BIGSUB  39        0    4.25063E+04    81.317     0.000   146.099   109.954   199.272     0.000     3.515     3.029    10.582     0.017     0.050     0.003     0.002     0.001     0.552     3.883     0.003     0.000 .00000E+00 0.000E+00 0.000E+00 0.000E+00    39
BIGSUB  40        0    4.11601E+03    73.852     0.000   144.665    80.408    72.573     0.858     4.989    12.718    22.258     0.016     0.028     0.005     0.008     0.002     0.694     0.822     0.019     0.000 .00000E+00 0.000E+00 0.000E+00 0.000E+00    40
BIGSUB  41        0    4.13841E+04    74.953     0.000   169.075   101.113   224.149     0.000     4.313     0.774     8.820     0.011     0.018     0.003     0.003     0.002     0.241     1.649     0.005     0.000 .00000E+00 0.000E+00 0.000E+00 0.000E+00    41
BIGSUB  42        0    4.20494E+04    64.297     0.000   155.193   128.626   311.996     0.000     4.202     0.040     9.736     0.013     0.014     0.002     0.002     0.001     0.285     3.480     0.008     0.000 .00000E+00 0.000E+00 0.000E+00 0.000E+00    42
BIGSUB  43        0    4.15300E+04    64.019     0.000   149.440   110.252   292.342     0.000     7.854     0.008    12.551     0.042     0.052     0.005     0.004     0.004     0.549     4.266     0.012     0.000 .00000E+00 0.000E+00 0.000E+00 0.000E+00    43
BIGSUB  44        0    4.15396E+04    73.908     0.000   145.068    80.254    52.201     2.574     2.625    13.307    21.498     0.027     0.053     0.002     0.002     0.001     0.496     1.623     0.010     0.095 .00000E+00 0.000E+00 0.000E+00 0.000E+00    44
BIGSUB  45        0    4.15245E+04   102.544     0.000   137.256   125.337   256.227    12.181     4.784     5.157    23.262     0.042     0.072     0.004     0.003     0.002     0.559     7.265     0.059     0.690 .00000E+00 0.000E+00 0.000E+00 0.000E+00    45
BIGSUB  46        0    4.47577E+03   103.479     0.000   138.541    88.025   340.655    16.649     3.951    13.726    46.413     0.027     0.062     0.004     0.004     0.002     0.345    24.906     0.122     2.063 .00000E+00 0.000E+00 0.000E+00 0.000E+00    46
BIGSUB  47        0    4.12481E+04    64.205     0.000   156.826   110.007   249.100     0.000     5.181     0.026    15.259     0.044     0.047     0.004     0.003     0.003     0.598     8.582     0.005     0.000 .00000E+00 0.000E+00 0.000E+00 0.000E+00    47
BIGSUB  48        0    4.19404E+04    75.348     0.000   169.753   101.031   215.953     0.000     3.791     0.614    10.670     0.011     0.016     0.003     0.002     0.001     0.468     4.582     0.005     0.000 .00000E+00 0.000E+00 0.000E+00 0.000E+00    48
BIGSUB  49        0    4.81224E+03    88.872     0.000   165.415    80.840   493.189    19.342     4.976     1.447     6.980     0.013     0.101     0.004     0.003     0.003     0.358     0.470     0.013     0.000 .00000E+00 0.000E+00 0.000E+00 0.000E+00    49
BIGSUB  50        0    4.31092E+04   117.197     0.000   118.322   100.502   376.207     0.900     6.239     2.171    24.040     0.012     0.012     0.003     0.002     0.001     0.539    15.623     0.009     0.000 .00000E+00 0.000E+00 0.000E+00 0.000E+00    50
BIGSUB  51        0    4.29746E+04   124.530     0.000   123.938   102.241   378.418     1.191     5.860     2.957    24.858     0.010     0.013     0.004     0.002     0.001     0.440    16.033     0.023     0.004 .00000E+00 0.000E+00 0.000E+00 0.000E+00    51
BIGSUB  52        0    4.24905E+04    89.413     0.000   165.784   114.633   222.655     1.781     6.156     2.113    13.732     0.031     0.115     0.004     0.003     0.007     0.468     5.297     0.017     0.034 .00000E+00 0.000E+00 0.000E+00 0.000E+00    52
BIGSUB  53        0    4.74981E+04    71.248     0.000   183.350    77.688   282.731     7.462     6.579     9.479    21.409     0.062     0.185     0.005     0.003     0.009     0.422     2.748     0.093     0.964 .00000E+00 0.000E+00 0.000E+00 0.000E+00    53
BIGSUB  54        0    4.24432E+04   111.653     0.000   128.460   107.827   476.486     0.202     4.712     0.648    11.383     0.006     0.010     0.003     0.002     0.001     0.295     5.968     0.006     0.000 .00000E+00 0.000E+00 0.000E+00 0.000E+00    54
BIGSUB  55        0    4.46963E+04    92.022     0.000   180.367   100.329   267.565     1.695     3.482     5.402    21.238     0.006     0.006     0.002     0.001     0.001     0.207     9.493     0.005     0.000 .00000E+00 0.000E+00 0.000E+00 0.000E+00    55
BIGSUB   1        0    5.17853E+04   109.747     0.000   150.409    88.020   100.555     1.596     3.930     0.255    18.492     0.001     0.035     0.001     0.026     0.001     0.029    13.608     0.044     0.001 .00000E+00 0.000E+00 0.000E+00 0.000E+00     1
BIGSUB   2        0    5.18834E+04   106.409     0.000   144.126    81.848   168.458     2.525     2.676     0.798    18.552     0.003     0.005     0.002     0.004     0.001     0.040    14.297     0.181     0.003 .00000E+00 0.000E+00 0.000E+00 0.000E+00     2
BIGSUB   3        0    5.18046E+04   127.333     0.000   180.036   155.392   215.266     0.055    24.334     0.031    25.146     0.079     0.328     0.008     0.026     0.051     0.301     0.762     0.003     0.013 .00000E+00 0.000E+00 0.000E+00 0.000E+00     3
BIGSUB   4        0    5.37698E+03   103.479     0.000   144.949    87.571   108.217     6.670    11.250     1.677    29.273     0.029     0.062     0.011     0.202     0.007     0.447    12.641     0.213     0.009 .00000E+00 0.000E+00 0.000E+00 0.000E+00     4
BIGSUB   5        0    5.16264E+03   103.479     0.000   146.687    94.463   177.831     7.520    12.170     1.739    24.015     0.022     0.051     0.012     0.159     0.006     0.383     6.197     0.079     0.012 .00000E+00 0.000E+00 0.000E+00 0.000E+00     5
BIGSUB   6        0    5.72804E+03   111.516     0.000   149.167    86.284   110.794     4.032     9.914     0.591    25.275     0.013     0.028     0.008     0.085     0.005     0.138    13.295     0.095     0.005 .00000E+00 0.000E+00 0.000E+00 0.000E+00     6
BIGSUB   7        0    5.12444E+04   132.294     0.000   191.296   143.953   224.517     0.316    30.793     0.223    42.476     0.107     0.802     0.010     0.009     0.064     0.608    11.416     0.028     0.009 .00000E+00 0.000E+00 0.000E+00 0.000E+00     7
BIGSUB   8        0    5.12111E+04   100.344     0.000   132.778    92.260   153.600     0.000     3.880     0.142    16.726     0.010     0.039     0.003     0.002     0.001     0.193    12.683     0.002     0.000 .00000E+00 0.000E+00 0.000E+00 0.000E+00     8
BIGSUB   9        0    5.10381E+04   100.465     0.000   132.973    92.737   203.087     0.000     6.728     0.119    16.929     0.016     0.031     0.005     0.002     0.003     0.217    10.065     0.001     0.000 .00000E+00 0.000E+00 0.000E+00 0.000E+00     9
BIGSUB  10        0    5.24562E+04    80.985     0.000   160.249   111.076   122.719     0.000     3.317     0.000    13.835     0.004     0.006     0.002     0.002     0.001     0.090    10.509     0.004     0.000 .00000E+00 0.000E+00 0.000E+00 0.000E+00    10
BIGSUB  11        0    5.16872E+04    45.209     0.000   163.270   103.816   163.757     0.000     2.456     0.007     9.954     0.004     0.005     0.002     0.069     0.001     0.036     7.488     0.010     0.000 .00000E+00 0.000E+00 0.000E+00 0.000E+00    11
BIGSUB  12        0    5.50857E+04   102.979     0.000   141.214   105.266    95.712     0.000     8.968     0.000    16.616     0.022     0.140     0.004     0.019     0.014     0.154     7.648     0.024     0.000 .00000E+00 0.000E+00 0.000E+00 0.000E+00    12
BIGSUB  13        0    5.45584E+04   103.444     0.000   135.112   123.125   253.536     1.837     5.010     0.239     9.533     0.007     0.015     0.003     0.002     0.001     0.323     0.293     0.009     0.000 .00000E+00 0.000E+00 0.000E+00 0.000E+00    13
BIGSUB  14        0    5.34427E+04   108.086     0.000   198.853   130.762   305.898     0.000    10.382     0.000    21.364     0.040     0.263     0.005     0.015     0.018     0.228    10.982     0.053     0.000 .00000E+00 0.000E+00 0.000E+00 0.000E+00    14
BIGSUB  15        0    5.55713E+03    56.260     0.000   158.015    80.445    19.751     1.967     1.614     6.216     8.345     0.004     0.011     0.003     0.025     0.001     0.048     0.153     0.002     0.027 .00000E+00 0.000E+00 0.000E+00 0.000E+00    15
BIGSUB  16        0    5.90746E+03    56.260     0.000   148.969   108.145   220.183     0.000     2.264     0.000     4.262     0.006     0.007     0.003     0.055     0.001     0.043     1.998     0.009     0.000 .00000E+00 0.000E+00 0.000E+00 0.000E+00    16
BIGSUB  17        0    5.71571E+01    76.353     0.000   157.365    87.633    62.740     0.566     7.040     2.466    12.798     0.019     0.141     0.016     0.135     0.007     0.284     1.112     0.018     0.001 .00000E+00 0.000E+00 0.000E+00 0.000E+00    17
BIGSUB  18        0    5.14992E+04    56.260     0.000   146.900    67.390     8.489     0.018     1.440     5.783     7.851     0.005     0.005     0.002     0.033     0.001     0.041     0.282     0.003     0.000 .00000E+00 0.000E+00 0.000E+00 0.000E+00    18
BIGSUB  19        0    5.11194E+04   103.459     0.000   144.242   115.749   245.044     0.000    10.541     1.615    24.645     0.018     0.046     0.009     0.137     0.006     0.291    12.318     0.042     0.000 .00000E+00 0.000E+00 0.000E+00 0.000E+00    19
BIGSUB  20        0    5.10973E+03   103.479     0.000   143.388   119.978   275.263     0.000     7.691     1.380    21.489     0.010     0.050     0.011     0.053     0.005     0.254    12.272     0.030     0.000 .00000E+00 0.000E+00 0.000E+00 0.000E+00    20
BIGSUB  21        0    5.22421E+04    88.992     0.000   137.206    91.459   212.149     0.000     3.883     0.004     9.525     0.012     0.029     0.003     0.043     0.002     0.246     4.057     0.011     0.000 .00000E+00 0.000E+00 0.000E+00 0.000E+00    21
BIGSUB  22        0    5.42091E+03   103.291     0.000   130.780   109.856   202.803     0.000     8.742     2.158    18.509     0.017     0.064     0.010     0.136     0.006     0.340     7.381     0.037     0.000 .00000E+00 0.000E+00 0.000E+00 0.000E+00    22
BIGSUB  23        0    5.17889E+04    75.348     0.000   129.771    99.606   300.401     0.000     2.430     2.876    22.211     0.014     0.029     0.003     0.002     0.001     0.259     9.823     0.008     0.000 .00000E+00 0.000E+00 0.000E+00 0.000E+00    23
BIGSUB  24        0    5.16748E+04    76.353     0.000   152.044    85.018    68.861     0.000     6.718     1.945    13.820     0.019     0.039     0.007     0.140     0.004     0.232     3.376     0.007     0.000 .00000E+00 0.000E+00 0.000E+00 0.000E+00    24
BIGSUB  25        0    5.44689E+03    88.308     0.000   196.377   118.310   264.783     3.343     3.005     2.155    11.412     0.009     0.056     0.002     0.010     0.004     0.050     4.826     0.019     0.224 .00000E+00 0.000E+00 0.000E+00 0.000E+00    25
BIGSUB  26        0    5.12102E+04   111.516     0.000   107.240    95.389    97.049     0.250     4.261     5.202    10.649     0.006     0.015     0.005     0.005     0.002     0.225     1.049     0.019     0.726 .00000E+00 0.000E+00 0.000E+00 0.000E+00    26
BIGSUB  27        0    5.48653E+04    73.277     0.000   146.070    64.284   111.501    15.260     3.750     3.794    20.468     0.006     0.015     0.003     0.040     0.001     0.133     3.125     0.043     0.122 .00000E+00 0.000E+00 0.000E+00 0.000E+00    27
BIGSUB  28        0    5.18591E+04    89.414     0.000   145.045    98.016   197.184     0.055     4.908     7.950    21.955     0.007     0.011     0.004     0.036     0.002     0.146     2.260     0.017     0.000 .00000E+00 0.000E+00 0.000E+00 0.000E+00    28
BIGSUB  29        0    5.35664E+04    88.169     0.000   209.831   122.381   300.640     0.682     3.430     0.380    11.493     0.004     0.009     0.002     0.014     0.001     0.057     7.517     0.005     0.033 .00000E+00 0.000E+00 0.000E+00 0.000E+00    29
BIGSUB  30        0    5.19013E+04    85.347     0.000   142.646    95.533   210.226     0.007     2.108     0.495    17.594     0.013     0.036     0.002     0.006     0.001     0.221     7.645     0.008     0.001 .00000E+00 0.000E+00 0.000E+00 0.000E+00    30
BIGSUB  31        0    5.21681E+04    74.232     0.000   151.878    95.126   111.404     0.001     1.959     0.830    15.352     0.012     0.035     0.002     0.010     0.001     0.210     4.137     0.009     0.001 .00000E+00 0.000E+00 0.000E+00 0.000E+00    31
BIGSUB  32        0    5.15204E+04   111.516     0.000   131.356   108.211    63.519     0.371     2.312     5.009     9.165     0.006     0.011     0.003     0.005     0.001     0.194     1.711     0.028     0.597 .00000E+00 0.000E+00 0.000E+00 0.000E+00    32
BIGSUB  33        0    5.20281E+04   100.256     0.000   214.701   127.093   162.868     0.000     5.399     2.033    11.673     0.004     0.005     0.003     0.021     0.001     0.011     3.703     0.003     0.000 .00000E+00 0.000E+00 0.000E+00 0.000E+00    33
BIGSUB  34        0    5.10296E+04    99.522     0.000   197.590   121.616   218.001     0.000     6.004     0.617    19.208     0.004     0.010     0.005     0.039     0.002     0.029    12.429     0.018     0.000 .00000E+00 0.000E+00 0.000E+00 0.000E+00    34
BIGSUB  35        0    5.10086E+04   133.308     0.000   125.910   113.921   287.321     0.170    12.398     2.499    17.495     0.014     0.030     0.009     0.084     0.005     0.264     2.466     0.009     0.014 .00000E+00 0.000E+00 0.000E+00 0.000E+00    35
BIGSUB  36        0    5.45955E+04   119.447     0.000   186.715   116.857   396.760    20.704     5.260     1.469    16.373     0.009     0.025     0.003     0.011     0.006     0.069     9.575     0.247     0.005 .00000E+00 0.000E+00 0.000E+00 0.000E+00    36
BIGSUB  37        0    5.18073E+04    98.249     0.000   126.292    98.157   170.683     0.000     4.640     2.986    12.845     0.005     0.009     0.004     0.012     0.002     0.158     5.059     0.004     0.000 .00000E+00 0.000E+00 0.000E+00 0.000E+00    37
BIGSUB  38        0    5.19872E+04   120.558     0.000   168.387   126.459   187.380     0.000    15.293     0.000    27.623     0.168     0.963     0.011     0.032     0.034     0.688    12.330     0.114     0.000 .00000E+00 0.000E+00 0.000E+00 0.000E+00    38
BIGSUB  39        0    5.25063E+04    81.317     0.000   165.163   117.477   157.084     0.000     2.947     2.319     9.283     0.006     0.017     0.002     0.032     0.001     0.113     3.891     0.002     0.000 .00000E+00 0.000E+00 0.000E+00 0.000E+00    39
BIGSUB  40        0    5.11601E+03    97.804     0.000   124.574    88.526    71.356     3.830     5.705    10.164    20.002     0.010     0.030     0.007     0.019     0.003     0.405     0.960     0.012     0.000 .00000E+00 0.000E+00 0.000E+00 0.000E+00    40
BIGSUB  41        0    5.13841E+04    93.941     0.000   177.261   112.619   198.713     1.135     4.749     0.757     8.182     0.006     0.012     0.004     0.027     0.002     0.064     2.017     0.005     0.000 .00000E+00 0.000E+00 0.000E+00 0.000E+00    41
BIGSUB  42        0    5.20494E+04   133.618     0.000   154.806   139.426   290.689     0.000     7.609     0.001    15.458     0.007     0.009     0.005     0.043     0.003     0.052     7.353     0.010     0.000 .00000E+00 0.000E+00 0.000E+00 0.000E+00    42
BIGSUB  43        0    5.15300E+04   133.040     0.000   119.691   106.815   294.396     0.000    14.219     0.000    23.817     0.016     0.026     0.009     0.133     0.007     0.121     9.494     0.010     0.000 .00000E+00 0.000E+00 0.000E+00 0.000E+00    43
BIGSUB  44        0    5.15396E+04    97.878     0.000   116.326    82.090    50.950    10.288     2.992    11.678    21.869     0.007     0.022     0.003     0.030     0.001     0.113     3.741     0.028     0.007 .00000E+00 0.000E+00 0.000E+00 0.000E+00    44
BIGSUB  45        0    5.15245E+04   124.447     0.000   138.406   124.499   235.774     8.256     4.835     3.249    19.700     0.015     0.031     0.004     0.006     0.002     0.307     7.480     0.032     0.345 .00000E+00 0.000E+00 0.000E+00 0.000E+00    45
BIGSUB  46        0    5.47577E+03   125.581     0.000   139.662    97.262   321.078    17.449     4.111    12.588    47.105     0.016     0.047     0.004     0.033     0.002     0.202    26.622     0.070     1.102 .00000E+00 0.000E+00 0.000E+00 0.000E+00    46
BIGSUB  47        0    5.12481E+04   133.426     0.000   152.872   125.740   229.075     0.000     9.381     0.001    28.074     0.017     0.030     0.006     0.101     0.005     0.211    18.332     0.017     0.000 .00000E+00 0.000E+00 0.000E+00 0.000E+00    47
BIGSUB  48        0    5.19404E+04    94.437     0.000   177.619   112.087   188.634     0.000     4.212     0.049    10.415     0.006     0.009     0.003     0.016     0.001     0.117     5.709     0.005     0.000 .00000E+00 0.000E+00 0.000E+00 0.000E+00    48
BIGSUB  49        0    5.81224E+03   118.829     0.000   189.098   118.825   460.198    25.559     6.655     3.317    10.893     0.010     0.082     0.005     0.016     0.006     0.103     0.724     0.016     0.193 .00000E+00 0.000E+00 0.000E+00 0.000E+00    49
BIGSUB  50        0    5.31092E+04   113.416     0.000   134.858   114.571   339.206    14.373     5.930     9.001    33.198     0.006     0.006     0.003     0.015     0.001     0.111    18.255     0.067     0.399 .00000E+00 0.000E+00 0.000E+00 0.000E+00    50
BIGSUB  51        0    5.29746E+04   120.513     0.000   141.083   118.179   341.315    15.640     5.569     9.896    37.350     0.006     0.006     0.003     0.013     0.001     0.095    21.871     0.112     0.669 .00000E+00 0.000E+00 0.000E+00 0.000E+00    51
BIGSUB  52        0    5.24905E+04   114.530     0.000   175.481   124.089   192.024     6.698     7.847     5.137    20.104     0.011     0.044     0.004     0.012     0.011     0.076     6.949     0.014     0.396 .00000E+00 0.000E+00 0.000E+00 0.000E+00    52
BIGSUB  53        0    5.74981E+04   152.530     0.000   145.209    86.402   258.619    56.210    25.631    23.659    64.478     0.084     0.268     0.007     0.030     0.053     0.304     9.288     0.343     5.052 .00000E+00 0.000E+00 0.000E+00 0.000E+00    53
BIGSUB  54        0    5.24432E+04   167.479     0.000   144.917   130.201   460.000    28.493    11.821     2.139    29.416     0.024     0.075     0.005     0.014     0.016     0.139    15.335     0.152     0.034 .00000E+00 0.000E+00 0.000E+00 0.000E+00    54
BIGSUB  55        0    5.46963E+04    93.022     0.000   155.286    93.362   250.144     5.975     3.377     4.694    20.407     0.003     0.003     0.002     0.004     0.001     0.024    10.653     0.004     0.090 .00000E+00 0.000E+00 0.000E+00 0.000E+00    55
BIGSUB   1        0    6.17853E+04    73.165     0.000   115.362    85.865    80.576     0.000     1.851     0.326     8.738     0.000     0.024     0.001     0.011     0.000     0.001     5.869     0.002     0.000 .00000E+00 0.000E+00 0.000E+00 0.000E+00     1
BIGSUB   2        0    6.18834E+04    76.293     0.000   121.000    94.175   143.964     0.000     1.313     0.853     9.189     0.002     0.003     0.001     0.007     0.001     0.001     6.269     0.006     0.003 .00000E+00 0.000E+00 0.000E+00 0.000E+00     2
BIGSUB   3        0    6.18046E+04   129.262     0.000   134.232   125.705   209.069     0.000     9.276     0.000     9.988     0.007     0.017     0.005     0.006     0.010     0.009     0.708     0.001     0.000 .00000E+00 0.000E+00 0.000E+00 0.000E+00     3
BIGSUB   4        0    6.37698E+03   122.567     0.000   123.707    95.909    98.259     8.206    13.490     2.791    35.919     0.012     0.030     0.012     0.061     0.007     0.015    15.154     0.068     0.050 .00000E+00 0.000E+00 0.000E+00 0.000E+00     4
BIGSUB   5        0    6.16264E+03   122.567     0.000   123.765   103.511   162.904    10.581    14.708     3.456    32.622     0.014     0.033     0.014     0.023     0.007     0.015     9.241     0.098     0.052 .00000E+00 0.000E+00 0.000E+00 0.000E+00     5
BIGSUB   6        0    6.72804E+03    74.344     0.000   122.922    91.287    84.134     0.000     4.664     0.810    12.846     0.006     0.014     0.006     0.010     0.003     0.005     5.727     0.010     0.002 .00000E+00 0.000E+00 0.000E+00 0.000E+00     6
BIGSUB   7        0    6.12444E+04   134.298     0.000   154.392   128.572   217.503     0.000    10.273     0.014    20.386     0.003     0.022     0.002     0.004     0.017     0.014    10.077     0.001     0.000 .00000E+00 0.000E+00 0.000E+00 0.000E+00     7
BIGSUB   8        0    6.12111E+04   100.344     0.000   123.272    97.523   140.006     0.033     4.157     0.124    17.181     0.005     0.008     0.003     0.040     0.001     0.011    12.881     0.030     0.000 .00000E+00 0.000E+00 0.000E+00 0.000E+00     8
BIGSUB   9        0    6.10381E+04   100.465     0.000   122.941    99.095   187.384     0.006     7.244     0.103    17.607     0.009     0.007     0.004     0.146     0.003     0.011    10.245     0.014     0.000 .00000E+00 0.000E+00 0.000E+00 0.000E+00     9
BIGSUB  10        0    6.24562E+04   135.974     0.000   129.559   110.088   124.966     0.000     6.223     0.000    23.330     0.005     0.005     0.004     0.031     0.001     0.007    17.105     0.028     0.000 .00000E+00 0.000E+00 0.000E+00 0.000E+00    10
BIGSUB  11        0    6.16872E+04   149.692     0.000   132.763   108.763   172.240     0.000    10.897     0.006    27.862     0.008     0.011     0.007     0.009     0.003     0.006    16.956     0.011     0.000 .00000E+00 0.000E+00 0.000E+00 0.000E+00    11
BIGSUB  12        0    6.50857E+04   121.975     0.000   121.116   107.342    90.781     0.000    10.813     0.000    20.023     0.005     0.015     0.003     0.008     0.017     0.008     9.210     0.011     0.000 .00000E+00 0.000E+00 0.000E+00 0.000E+00    12
BIGSUB  13        0    6.45584E+04   142.612     0.000   121.525   114.977   268.806     3.487     7.937     0.200    11.738     0.006     0.006     0.004     0.043     0.002     0.021     0.331     0.006     0.000 .00000E+00 0.000E+00 0.000E+00 0.000E+00    13
BIGSUB  14        0    6.34427E+04   128.101     0.000   147.038   116.127   305.230     0.000     4.688     0.000    14.861     0.003     0.009     0.003     0.002     0.003     0.005    10.174     0.001     0.000 .00000E+00 0.000E+00 0.000E+00 0.000E+00    14
BIGSUB  15        0    6.55713E+03    99.460     0.000   160.303    92.555    22.072     7.513     5.731     5.859    15.224     0.004     0.011     0.004     0.007     0.002     0.005     3.296     0.001     0.016 .00000E+00 0.000E+00 0.000E+00 0.000E+00    15
BIGSUB  16        0    6.90746E+03    99.460     0.000   148.411   112.935   194.291     0.000     8.040     0.000    11.494     0.007     0.008     0.005     0.005     0.002     0.004     3.454     0.005     0.000 .00000E+00 0.000E+00 0.000E+00 0.000E+00    16
BIGSUB  17        0    6.71571E+01   112.520     0.000   152.173    95.770    58.686     2.890    16.171     1.664    22.803     0.012     0.134     0.023     0.057     0.010     0.013     3.537     0.045     0.000 .00000E+00 0.000E+00 0.000E+00 0.000E+00    17
BIGSUB  18        0    6.14992E+04    99.460     0.000   140.665    80.773    15.069     4.352     5.198     5.163    13.141     0.005     0.006     0.004     0.003     0.001     0.006     2.473     0.000     0.000 .00000E+00 0.000E+00 0.000E+00 0.000E+00    18
BIGSUB  19        0    6.11194E+04    99.441     0.000   145.229   112.231   205.927     0.000    12.826     1.423    27.430     0.008     0.013     0.008     0.023     0.006     0.005    13.028     0.062     0.000 .00000E+00 0.000E+00 0.000E+00 0.000E+00    19
BIGSUB  20        0    6.10973E+03    99.460     0.000   143.457   116.114   234.727     0.000     9.338     1.216    23.668     0.007     0.035     0.010     0.024     0.004     0.004    12.984     0.044     0.000 .00000E+00 0.000E+00 0.000E+00 0.000E+00    20
BIGSUB  21        0    6.22421E+04   103.990     0.000   134.996   105.882   196.711     0.790     6.326     0.493    13.777     0.006     0.006     0.004     0.004     0.002     0.006     6.506     0.004     0.021 .00000E+00 0.000E+00 0.000E+00 0.000E+00    21
BIGSUB  22        0    6.42091E+03    99.280     0.000   135.720   112.404   170.695     0.000    10.622     1.901    20.685     0.007     0.021     0.009     0.026     0.006     0.005     7.959     0.040     0.000 .00000E+00 0.000E+00 0.000E+00 0.000E+00    22
BIGSUB  23        0    6.17889E+04   109.506     0.000   106.333    86.732   303.109     0.000     4.707     1.382    22.640     0.007     0.014     0.004     0.046     0.002     0.055    12.871     0.037     0.000 .00000E+00 0.000E+00 0.000E+00 0.000E+00    23
BIGSUB  24        0    6.16748E+04   112.520     0.000   150.586    95.661    61.234     2.043    15.612     1.222    26.683     0.011     0.015     0.009     0.007     0.007     0.009     8.764     0.002     0.001 .00000E+00 0.000E+00 0.000E+00 0.000E+00    24
BIGSUB  25        0    6.44689E+03    63.220     0.000   143.802    99.172   225.367     0.000     1.247     0.282     4.971     0.001     0.005     0.002     0.002     0.001     0.001     2.811     0.004     0.000 .00000E+00 0.000E+00 0.000E+00 0.000E+00    25
BIGSUB  26        0    6.12102E+04   127.590     0.000   140.809   118.243    96.302     2.870     6.632     5.647    14.090     0.004     0.009     0.005     0.025     0.002     0.005     1.685     0.012     0.770 .00000E+00 0.000E+00 0.000E+00 0.000E+00    26
BIGSUB  27        0    6.48653E+04    78.296     0.000   124.088    78.306   100.254     5.919     4.027     2.388    16.446     0.004     0.003     0.003     0.028     0.001     0.003     1.204     0.015     0.008 .00000E+00 0.000E+00 0.000E+00 0.000E+00    27
[...]
BIGSUB  35        0 1986.10086E+04  1167.702    50.722  1243.683   810.595   386.862    80.272   124.691    21.058   184.821     0.087     0.163     0.078     0.386     0.072     1.154    38.409     0.354     0.714 .00000E+00 0.000E+00 0.000E+00 0.000E+00    35
BIGSUB  36        0 1986.45955E+04  1144.278    35.000  1342.011   750.583   431.089   210.099    71.896    96.739   268.611     0.030     0.060     0.023     0.097     0.129     0.114    92.125     0.297     2.645 .00000E+00 0.000E+00 0.000E+00 0.000E+00    36
BIGSUB  37        0 1986.18073E+04  1194.021    26.000  1189.587   818.938   256.941   151.531    62.964    86.635   298.210     0.041     0.069     0.045     0.060     0.022     0.021   145.047     0.339     1.286 .00000E+00 0.000E+00 0.000E+00 0.000E+00    37
BIGSUB  38        0 1986.19872E+04  1352.254    25.000  1287.772   894.994   312.296     4.534   187.315     0.035   344.628     0.041     0.133     0.035     0.178     0.407     0.206   157.241     0.283     0.001 .00000E+00 0.000E+00 0.000E+00 0.000E+00    38
BIGSUB  39        0 1986.25063E+04  1229.787    21.000  1235.313   829.380   284.207   138.124    57.476    44.608   267.636     0.039     0.054     0.034     0.076     0.024     0.063   164.046     0.611     0.715 .00000E+00 0.000E+00 0.000E+00 0.000E+00    39
BIGSUB  40        0 1986.11601E+03  1188.621    26.000  1156.479   722.631   118.037   340.065    83.860   189.036   343.188     0.071     0.253     0.084     0.131     0.048     0.035    21.171     0.032     1.044 .00000E+00 0.000E+00 0.000E+00 0.000E+00    40
BIGSUB  41        0 1986.13841E+04  1352.151    33.000  1396.102   834.553   247.300   373.203    94.909   236.233   446.304     0.076     0.138     0.058     0.134     0.070     0.177    47.691     0.123     8.056 .00000E+00 0.000E+00 0.000E+00 0.000E+00    41
BIGSUB  42        0 1986.20494E+04  1170.413    50.735  1250.507   832.856   382.542   118.082    75.144    35.623   255.382     0.061     0.059     0.039     0.176     0.036     0.271    93.828     0.290     0.650 .00000E+00 0.000E+00 0.000E+00 0.000E+00    42
BIGSUB  43        0 1986.15300E+04  1165.353    50.731  1179.016   728.276   385.452    99.940   133.650    29.772   315.854     0.113     0.131     0.078     0.544     0.068     0.348   113.519     0.599     1.114 .00000E+00 0.000E+00 0.000E+00 0.000E+00    43
BIGSUB  44        0 1986.15396E+04  1189.520    26.000  1126.761   676.992    85.657   375.196    47.388   218.531   402.533     0.037     0.068     0.031     0.065     0.038     0.029    79.505     0.130     0.905 .00000E+00 0.000E+00 0.000E+00 0.000E+00    44
BIGSUB  45        0 1986.15245E+04  1379.864    52.218  1160.020   884.243   296.333   294.199    81.207   147.622   445.660     0.056     0.092     0.044     0.060     0.073     0.030   106.906     0.240     2.108 .00000E+00 0.000E+00 0.000E+00 0.000E+00    45
BIGSUB  46        0 1986.47577E+03  1392.439    52.215  1171.389   748.432   315.798   240.665    66.619   153.955   597.179     0.044     0.134     0.045     0.088     0.068     0.026   337.993     0.394     1.091 .00000E+00 0.000E+00 0.000E+00 0.000E+00    46
BIGSUB  47        0 1986.12481E+04  1168.736    50.723  1275.868   727.637   274.754    83.538    88.440    24.759   356.080     0.087     0.113     0.053     0.388     0.043     0.673   211.496     0.483     0.378 .00000E+00 0.000E+00 0.000E+00 0.000E+00    47
BIGSUB  48        0 1986.19404E+04  1359.287    33.000  1393.377   837.951   246.601   249.427    85.250   155.879   421.730     0.073     0.110     0.048     0.085     0.062     0.366   139.774     0.512     4.858 .00000E+00 0.000E+00 0.000E+00 0.000E+00    48
BIGSUB  49        0 1986.81224E+03  1138.361    35.000  1380.268   782.586   484.620   278.483    66.890   136.285   224.255     0.034     0.088     0.040     0.142     0.071     0.170    10.007     0.046     3.517 .00000E+00 0.000E+00 0.000E+00 0.000E+00    49
BIGSUB  50        0 1986.31092E+04  1353.435    17.000  1202.094   787.677   362.035   261.497    77.827   163.476   486.390     0.063     0.069     0.038     0.098     0.032     0.445   244.818     0.490     2.292 .00000E+00 0.000E+00 0.000E+00 0.000E+00    50
BIGSUB  51        0 1986.29746E+04  1438.122    17.000  1261.475   831.454   350.416   242.489    86.002   149.030   496.147     0.068     0.091     0.041     0.109     0.075     0.393   260.873     0.489     3.537 .00000E+00 0.000E+00 0.000E+00 0.000E+00    51
BIGSUB  52        0 1986.24905E+04  1389.425    27.042  1281.874   841.762   257.547   273.658   173.290   214.873   489.505     0.104     0.397     0.049     0.151     0.395     0.389    94.013     0.407     7.589 .00000E+00 0.000E+00 0.000E+00 0.000E+00    52
BIGSUB  53        0 1986.74981E+04  1342.668    22.000  1464.634   751.460   281.118   344.528   189.692   199.439   517.839     0.140     0.360     0.045     0.346     0.365     0.476    66.214     0.168     4.450 .00000E+00 0.000E+00 0.000E+00 0.000E+00    53
BIGSUB  54        0 1986.24432E+04  1418.587    15.000  1268.510   885.824   515.731   293.767    80.159    52.827   259.806     0.051     0.131     0.038     0.090     0.088     0.275   122.845     0.535     0.974 .00000E+00 0.000E+00 0.000E+00 0.000E+00    54
BIGSUB  55        0 1986.46963E+04  1159.276    10.000  1382.236   781.525   284.619   190.580    47.702   117.399   354.248     0.039     0.045     0.025     0.047     0.029     0.106   162.042     0.322     2.711 .00000E+00 0.000E+00 0.000E+00 0.000E+00    55
BIGSUB   1        0  2.0.17853E+04  1029.748    61.708  1123.950   679.924   138.076   105.521    37.578    31.168   302.416     0.148     0.803     0.017     0.150     0.014     1.092   178.743     1.833     1.597 .00000E+00 0.000E+00 0.000E+00 0.000E+00     1
BIGSUB   2        0  2.0.18834E+04  1063.084    64.436  1038.591   693.765   217.123    94.636    32.047    38.066   291.526     0.457     1.663     0.039     0.027     0.032     2.065   190.702     1.679     0.635 .00000E+00 0.000E+00 0.000E+00 0.000E+00     2
BIGSUB   3        0  2.0.18046E+04  1196.638    61.990  1213.591   924.939   288.872    68.905   167.923    48.602   240.170     0.844     2.849     0.080     0.292     0.341     2.964     6.695     0.042     2.945 .00000E+00 0.000E+00 0.000E+00 0.000E+00     3
BIGSUB   4        0  2.0.37698E+03  1122.190    78.000  1086.975   677.027   126.925   117.968   133.586    36.491   403.417     0.786     1.394     0.130     0.336     0.102     4.523   168.325     1.891     1.237 .00000E+00 0.000E+00 0.000E+00 0.000E+00     4
BIGSUB   5        0  2.0.16264E+03  1122.190    78.000  1091.821   710.375   190.613   144.477   139.775    43.630   353.681     0.547     1.012     0.137     0.271     0.084     4.216    93.783     0.896     1.163 .00000E+00 0.000E+00 0.000E+00 0.000E+00     5
BIGSUB   6        0  2.0.72804E+03  1046.340    61.876  1074.282   653.897   134.682   115.415    92.716    34.361   346.786     0.480     1.033     0.093     0.166     0.061     2.833   159.046     1.494     1.175 .00000E+00 0.000E+00 0.000E+00 0.000E+00     6
BIGSUB   7        0  2.0.12444E+04  1243.261    61.989  1341.950   958.031   301.471    27.224   170.437    19.630   295.343     0.959     4.130     0.066     0.190     0.344     3.432    99.357     0.272     1.255 .00000E+00 0.000E+00 0.000E+00 0.000E+00     7
BIGSUB   8        0  2.0.12111E+04  1077.190    74.000  1016.961   719.095   202.515    62.241    69.126    29.564   281.178     2.349     8.795     0.112     0.082     0.087     7.757   178.493     1.812     0.544 .00000E+00 0.000E+00 0.000E+00 0.000E+00     8
BIGSUB   9        0  2.0.10381E+04  1078.488    74.000  1018.289   722.693   257.273    61.941    95.751    28.536   271.503     1.777     5.261     0.105     0.169     0.086     5.909   143.373     1.465     0.379 .00000E+00 0.000E+00 0.000E+00 0.000E+00     9
BIGSUB  10        0  2.0.24562E+04  1245.763    96.250  1158.665   892.744   228.852    25.387   122.422     3.542   330.044     0.956     3.387     0.075     0.113     0.241     3.844   186.953     1.274     0.333 .00000E+00 0.000E+00 0.000E+00 0.000E+00    10
BIGSUB  11        0  2.0.16872E+04  1024.739    61.591  1137.505   785.086   223.134     9.724    97.478     2.682   259.668     3.366     7.129     0.143     0.162     0.114     8.701   158.411     0.410     0.003 .00000E+00 0.000E+00 0.000E+00 0.000E+00    11
BIGSUB  12        0  2.0.50857E+04  1116.774    78.000  1045.159   763.667   203.374    23.404   183.589     9.775   293.544     1.500     5.658     0.092     0.268     0.431     5.570    97.972     0.927     0.297 .00000E+00 0.000E+00 0.000E+00 0.000E+00    12
BIGSUB  13        0  2.0.45584E+04  1419.087   110.092   973.451   873.036   400.077   157.397   247.308     7.981   378.450     1.165     4.477     0.089     0.106     0.503     5.370     7.840     0.056     0.062 .00000E+00 0.000E+00 0.000E+00 0.000E+00    13
BIGSUB  14        0  2.0.34427E+04  1236.479    61.135  1283.661   905.272   400.276    55.673   140.041    39.749   310.489     0.793     3.319     0.067     0.153     0.291     3.129   119.135     0.377     2.725 .00000E+00 0.000E+00 0.000E+00 0.000E+00    14
BIGSUB  15        0  2.0.55713E+03   903.177    47.520  1285.849   705.169    55.927   155.661    59.350    89.385   213.324     0.630     1.273     0.064     0.100     0.053     3.082    59.631     0.430     0.541 .00000E+00 0.000E+00 0.000E+00 0.000E+00    15
BIGSUB  16        0  2.0.90746E+03   903.177    47.521  1209.952   833.324   190.569     0.499    95.079     0.197   133.025     2.873     4.673     0.129     0.138     0.123     7.140    37.666     0.158     0.000 .00000E+00 0.000E+00 0.000E+00 0.000E+00    16
BIGSUB  17        0  2.0.71571E+01  1007.660    67.959  1254.559   670.570   103.718   108.926   145.976    48.565   310.696     1.637     3.326     0.249     0.831     0.154     5.907    85.328     1.845     1.502 .00000E+00 0.000E+00 0.000E+00 0.000E+00    17
BIGSUB  18        0  2.0.14992E+04   903.177    47.558  1157.818   616.182    41.928   155.788    53.880    88.505   213.799     1.155     0.782     0.078     0.082     0.052     5.099    66.540     1.178     1.206 .00000E+00 0.000E+00 0.000E+00 0.000E+00    18
BIGSUB  19        0  2.0.11194E+04  1115.449    73.271  1176.482   835.399   172.866    43.523   134.960    20.758   337.255     0.153     0.370     0.092     0.263     0.084     1.533   179.524     0.923     0.294 .00000E+00 0.000E+00 0.000E+00 0.000E+00    19
BIGSUB  20        0  2.0.10973E+03  1115.660    73.265  1167.621   864.279   213.442    34.863    96.995    17.641   297.316     0.101     0.491     0.117     0.232     0.053     1.312   180.963     0.906     0.264 .00000E+00 0.000E+00 0.000E+00 0.000E+00    20
BIGSUB  21        0  2.0.22421E+04  1213.387    93.880  1069.634   748.916   248.873   197.127   132.149   125.187   425.553     1.436     5.740     0.094     0.116     0.219     5.252   113.260     0.893     4.770 .00000E+00 0.000E+00 0.000E+00 0.000E+00    21
BIGSUB  22        0  2.0.42091E+03  1113.636    73.209  1112.927   841.465   232.515    57.502   111.121    28.573   260.357     0.140     0.482     0.101     0.276     0.078     1.851   117.886     1.024     0.463 .00000E+00 0.000E+00 0.000E+00 0.000E+00    22
BIGSUB  23        0  2.0.17889E+04  1279.417    89.349   903.520   744.855   388.125   160.871    73.136    49.971   436.344     1.593    12.013     0.082     0.072     0.064     8.292   245.452     1.452     2.641 .00000E+00 0.000E+00 0.000E+00 0.000E+00    23
BIGSUB  24        0  2.0.16748E+04  1007.660    67.964  1225.886   664.605   103.985    89.208   132.931    39.351   323.289     1.350     0.875     0.126     0.379     0.103     5.417   126.506     1.393     1.046 .00000E+00 0.000E+00 0.000E+00 0.000E+00    24
BIGSUB  25        0  2.0.44689E+03  1093.813    62.262  1263.646   771.419   318.111   145.244    79.198    76.664   254.437     0.598     2.611     0.052     0.082     0.186     2.275    59.331     0.314     4.794 .00000E+00 0.000E+00 0.000E+00 0.000E+00    25
BIGSUB  26        0  2.0.12102E+04  1463.769   105.403  1088.707   877.139   156.055   385.707   108.366   146.939   321.814     1.280     2.537     0.117     0.076     0.116     5.101    63.455     0.558     4.708 .00000E+00 0.000E+00 0.000E+00 0.000E+00    26
BIGSUB  27        0  2.0.48653E+04   842.690    41.722  1129.882   544.937   167.493   144.974    57.700    34.189   227.059     0.084     0.199     0.033     0.075     0.032     1.537    39.982     0.461     0.962 .00000E+00 0.000E+00 0.000E+00 0.000E+00    27
BIGSUB  28        0  2.0.18591E+04  1219.138    94.102  1071.811   748.623   226.398   319.049   101.677   149.006   412.167     0.557     1.256     0.062     0.071     0.083     1.913    64.471     0.447     3.607 .00000E+00 0.000E+00 0.000E+00 0.000E+00    28
BIGSUB  29        0  2.0.35664E+04  1092.095    62.183  1384.245   832.739   363.894    61.906    70.972    28.760   198.173     0.219     0.786     0.035     0.067     0.122     1.506    86.150     0.278     2.323 .00000E+00 0.000E+00 0.000E+00 0.000E+00    29
BIGSUB  30        0  2.0.19013E+04  1306.816    76.875  1109.540   796.497   256.974   189.491    51.951    11.909   397.143     0.578     2.362     0.051     0.067     0.046     2.755   219.219     2.032     0.534 .00000E+00 0.000E+00 0.000E+00 0.000E+00    30
BIGSUB  31        0  2.0.21681E+04  1277.998    67.000  1136.987   809.227   181.679   188.661    63.626    13.872   369.164     1.088     4.882     0.075     0.067     0.079     4.556   180.401     2.172     0.681 .00000E+00 0.000E+00 0.000E+00 0.000E+00    31
BIGSUB  32        0  2.0.15204E+04  1463.770   105.402  1092.156   874.526   135.022   372.413    86.460   143.625   335.790     1.817     3.971     0.116     0.045     0.142     6.879   102.730     0.770     4.020 .00000E+00 0.000E+00 0.000E+00 0.000E+00    32
BIGSUB  33        0  2.0.20281E+04  1208.584    65.488  1393.667   831.566   227.505   193.781   107.277   133.343   309.227     0.080     0.296     0.042     0.058     0.287     0.336    54.870     0.212     4.886 .00000E+00 0.000E+00 0.000E+00 0.000E+00    33
BIGSUB  34        0  2.0.10296E+04  1199.741    65.513  1306.521   815.017   284.496    86.187   100.330    55.761   353.071     0.168     0.574     0.062     0.137     0.117     0.932   191.618     1.174     3.336 .00000E+00 0.000E+00 0.000E+00 0.000E+00    34
BIGSUB  35        0  2.0.10086E+04  1116.583    48.049  1213.356   884.520   386.862    50.105   111.953    19.636   162.273     0.107     0.217     0.075     0.271     0.057     2.193    29.948     0.389     0.653 .00000E+00 0.000E+00 0.000E+00 0.000E+00    35
BIGSUB  36        0  2.0.45955E+04  1212.032    64.722  1312.485   827.883   431.089   172.500    59.111    60.872   210.348     0.035     0.069     0.024     0.065     0.084     0.491    85.543     0.751     1.921 .00000E+00 0.000E+00 0.000E+00 0.000E+00    36
BIGSUB  37        0  2.0.18073E+04  1210.563    37.000  1170.054   878.525   256.941   105.210    63.866    59.808   250.728     0.092     0.085     0.048     0.062     0.023     1.007   124.611     1.420     1.158 .00000E+00 0.000E+00 0.000E+00 0.000E+00    37
BIGSUB  38        0  2.0.19872E+04  1283.938    62.980  1263.814   934.974   312.296     2.267   193.970     0.017   325.820     1.694     7.235     0.103     0.247     0.457     5.880   131.814     0.269     0.001 .00000E+00 0.000E+00 0.000E+00 0.000E+00    38
BIGSUB  39        0  2.0.25063E+04  1174.070    38.999  1214.424   882.638   284.207    79.830    53.689    32.011   206.747     0.076     0.253     0.034     0.075     0.023     1.336   119.863     1.528     0.436 .00000E+00 0.000E+00 0.000E+00 0.000E+00    39
BIGSUB  40        0  2.0.11601E+03  1205.088    37.000  1137.662   775.840   118.037   307.742    83.902   163.969   309.116     0.218     0.581     0.091     0.132     0.048     1.882    19.467     0.169     3.014 .00000E+00 0.000E+00 0.000E+00 0.000E+00    40
BIGSUB  41        0  2.0.13841E+04  1222.732    63.000  1366.875   877.774   247.300   220.996    78.619   141.573   298.086     0.164     0.355     0.056     0.099     0.051     0.810    36.114     0.211     8.263 .00000E+00 0.000E+00 0.000E+00 0.000E+00    41
BIGSUB  42        0  2.0.20494E+04  1119.176    48.124  1219.662   900.789   382.542    73.741    69.072    22.590   203.146     0.111     0.175     0.039     0.126     0.030     0.810    76.780     0.505     1.520 .00000E+00 0.000E+00 0.000E+00 0.000E+00    42
BIGSUB  43        0  2.0.15300E+04  1114.338    48.110  1151.791   802.831   385.452    53.139   124.472    15.904   253.103     0.160     0.215     0.076     0.373     0.063     1.290    91.305     0.574     0.847 .00000E+00 0.000E+00 0.000E+00 0.000E+00    43
BIGSUB  44        0  2.0.15396E+04  1206.000    37.000  1108.974   728.287    85.657   346.237    47.647   192.557   365.012     0.258     1.054     0.040     0.061     0.038     1.704    75.494     0.485     2.704 .00000E+00 0.000E+00 0.000E+00 0.000E+00    44
BIGSUB  45        0  2.0.15245E+04  1351.988    68.546  1119.121   927.382   296.333   209.622    90.803   103.923   365.362     2.800     5.939     0.115     0.060     0.119     6.640    90.561     0.466     4.538 .00000E+00 0.000E+00 0.000E+00 0.000E+00    45
BIGSUB  46        0  2.0.47577E+03  1364.309    68.545  1130.097   779.935   315.798   196.827    71.721   129.765   534.096     1.523     3.604     0.084     0.091     0.096     3.783   299.343     1.096     5.650 .00000E+00 0.000E+00 0.000E+00 0.000E+00    46
BIGSUB  47        0  2.0.12481E+04  1117.572    48.050  1242.166   818.251   274.754    52.432    82.396    15.842   296.324     0.155     0.220     0.053     0.271     0.041     1.748   175.526     0.971     1.177 .00000E+00 0.000E+00 0.000E+00 0.000E+00    47
BIGSUB  48        0  2.0.19404E+04  1229.185    63.000  1362.819   882.738   246.601   146.055    70.268    92.513   293.991     0.153     0.370     0.046     0.064     0.044     1.516   105.613     0.771     5.293 .00000E+00 0.000E+00 0.000E+00 0.000E+00    48
BIGSUB  49        0  2.0.81224E+03  1205.764    64.658  1349.232   850.254   484.620   243.592    63.465    90.096   169.632     0.047     0.186     0.043     0.098     0.052     0.658     8.931     0.067     3.219 .00000E+00 0.000E+00 0.000E+00 0.000E+00    49
BIGSUB  50        0  2.0.31092E+04  1238.128    73.576  1173.695   845.954   362.035   151.121    66.261    99.294   360.085     0.093     0.134     0.035     0.066     0.023     1.385   194.362     0.757     1.608 .00000E+00 0.000E+00 0.000E+00 0.000E+00    50
BIGSUB  51        0  2.0.29746E+04  1315.601    73.578  1230.457   884.285   350.416   144.194    68.602    95.017   370.004     0.069     0.094     0.037     0.071     0.045     1.049   206.226     0.629     2.555 .00000E+00 0.000E+00 0.000E+00 0.000E+00    51
BIGSUB  52        0  2.0.24905E+04  1298.505    62.308  1254.199   894.018   257.547   163.653   137.756   129.743   350.380     0.437     1.818     0.057     0.100     0.294     2.007    78.381     0.362     5.161 .00000E+00 0.000E+00 0.000E+00 0.000E+00    52
BIGSUB  53        0  2.0.74981E+04  1277.943    47.499  1443.733   792.821   281.118   251.910   164.197   154.418   422.177     0.693     1.788     0.066     0.213     0.308     2.758    54.274     0.560     6.952 .00000E+00 0.000E+00 0.000E+00 0.000E+00    53
BIGSUB  54        0  2.0.24432E+04  1327.869    78.304  1255.625   943.240   515.731   169.709    67.301    34.743   201.875     0.113     0.284     0.037     0.062     0.064     1.030    97.172     0.591     0.520 .00000E+00 0.000E+00 0.000E+00 0.000E+00    54
BIGSUB  55        0  2.0.46963E+04  1225.292    41.000  1367.017   834.623   284.619   179.324    50.455   117.652   358.954     0.238     0.318     0.032     0.034     0.030     0.997   160.536     0.838     6.793 .00000E+00 0.000E+00 0.000E+00 0.000E+00    55
