1
    SWAT Jun 11 2014    VER 2012/Rev 627                                                                 0/ 0/   0      0: 0: 0

    General Input/Output section (file.cio):                                        
    11/15/2017 12:00:00 AM ARCGIS-SWAT interface AV                                 
                                                                                    
         Number of years in run:    2
         Area of watershed:   106124.000 km2
1
    SWAT Jun 11 2014    VER 2012/Rev 627                                            

    General Input/Output section (file.cio):                                        
    11/15/2017 12:00:00 AM ARCGIS-SWAT interface AV                                 
                                                                                    
Annual Summary for Watershed in year    1 of simulation

UNIT                                    PERCO    TILE                           WATER     SED     NO3     NO3     NO3     NO3        N       P       P
TIME     PREC    SURQ    LATQ     GWQ    LATE       Q     SW       ET     PET   YIELD   YIELD    SURQ    LATQ    PERC    CROP  ORGANIC SOLUBLE ORGANIC TILENO3
         (mm)    (mm)    (mm)    (mm)    (mm)    (mm)    (mm)    (mm)    (mm)    (mm)    (mm)   ------------------(kg nutrient/ha)-------------------- (kg/ha)
    1   85.06    7.84    2.72    0.06    0.70    0.00  256.27   23.91   29.98    8.04    0.14    0.01    0.11    0.29    0.00     0.36    0.01    0.01    0.00
    2  122.17   25.92    9.21    4.73   22.77    0.00  281.03   40.45   48.10   42.48    1.10    0.01    0.72    6.52    0.00     3.55    0.07    0.05    0.00
    3   63.18    2.82    4.04    3.85    2.65    0.00  262.60   72.73  103.46   14.51    0.03    0.00    0.08    0.49    0.00     0.20    0.01    0.00    0.00
    4   83.29    5.34    5.55    2.73    2.99    0.00  237.48   94.96  149.63   15.77    0.04    0.00    0.04    0.60    2.53     0.13    0.01    0.00    0.00
    5  105.18    7.23    7.88    3.80    8.17    0.00  213.57  106.71  155.00   21.12    0.02    0.03    0.06    1.54   20.79     0.08    0.01    0.00    0.00
    6  104.69    5.75    6.00    2.28    1.01    0.00  199.51  106.54  140.56   15.54    0.00    0.01    0.01    0.01    8.47     0.01    0.00    0.00    0.00
    7  134.29    8.17    8.06    1.55    4.69    0.00  211.68  100.34  128.11   18.04    0.01    0.00    0.01    0.12    2.16     0.01    0.01    0.00    0.00
    8  153.98   12.86   13.40    4.18   13.55    0.00  223.83  101.17  122.11   32.67    0.01    0.00    0.02    0.47    2.42     0.01    0.02    0.01    0.00
    9   42.80    2.30    3.76    2.89    1.77    0.00  185.06   76.36  117.22   11.84    0.00    0.00    0.00    0.03    1.70     0.00    0.00    0.00    0.00
   10  108.50    6.11    7.16    2.39    4.42    0.00  210.97   63.39   87.03   17.60    0.01    0.00    0.00    0.08    0.72     0.01    0.00    0.00    0.00
   11  127.29   11.61   11.76    3.47   13.35    0.00  252.19   45.65   64.60   26.37    0.01    0.00    0.02    0.46    0.33     0.01    0.01    0.00    0.00
   12   44.84    2.34    8.59    5.22   11.65    0.00  251.40   24.88   37.84   21.54    0.00    0.00    0.02    0.41    0.02     0.01    0.01    0.00    0.00

 1985 1175.25   98.29   88.15   37.15   87.72    0.00  251.40  857.08 1183.64  245.53    1.36    0.09    1.09   11.02   39.15     4.38    0.15    0.09    0.00
1
    SWAT Jun 11 2014    VER 2012/Rev 627                                            

    General Input/Output section (file.cio):                                        
    11/15/2017 12:00:00 AM ARCGIS-SWAT interface AV                                 
                                                                                    
Annual Summary for Watershed in year    2 of simulation

UNIT                                    PERCO    TILE                           WATER     SED     NO3     NO3     NO3     NO3        N       P       P
TIME     PREC    SURQ    LATQ     GWQ    LATE       Q     SW       ET     PET   YIELD   YIELD    SURQ    LATQ    PERC    CROP  ORGANIC SOLUBLE ORGANIC TILENO3
         (mm)    (mm)    (mm)    (mm)    (mm)    (mm)    (mm)    (mm)    (mm)    (mm)    (mm)   ------------------(kg nutrient/ha)-------------------- (kg/ha)
    1   32.05    2.57    3.08    3.07    3.56    0.00  247.36   28.57   50.42   11.18    0.00    0.01    0.02    0.09    0.00     0.00    0.00    0.00    0.00
    2  117.25   14.49   14.87    8.63   31.74    0.00  264.81   34.78   52.40   41.13    0.01    0.03    0.18    1.98    0.10     0.03    0.03    0.00    0.00
    3   74.96    7.30    9.64    9.63   14.93    0.00  237.89   72.20  124.88   33.33    0.01    0.02    0.08    0.76    0.19     0.01    0.02    0.00    0.00
    4   34.82    1.22    2.63    5.58    1.12    0.00  204.82   65.50  146.77   14.37    0.00    0.01    0.02    0.01    2.99     0.00    0.00    0.00    0.00
    5  128.71    8.07    7.28    3.73    6.03    0.00  230.36   79.17  141.50   21.32    0.01    0.07    0.02    0.29   16.92     0.01    0.01    0.00    0.00
    6   70.05    3.63    6.91    5.46    6.22    0.00  185.14  101.99  153.00   19.04    0.00    0.01    0.02    0.27   10.01     0.01    0.01    0.00    0.00
    7   78.23    4.65    5.26    3.65    0.42    0.00  151.86  103.11  153.76   15.44    0.00    0.00    0.01    0.00    2.32     0.00    0.00    0.00    0.00
    8  126.37    6.92    7.44    2.50    1.68    0.00  179.14   82.31  119.08   17.98    0.00    0.00    0.00    0.01    2.25     0.01    0.00    0.00    0.00
    9  101.75    7.24   10.18    3.26    6.41    0.00  179.93   78.23  105.57   22.18    0.00    0.00    0.01    0.07    1.67     0.01    0.01    0.00    0.00
   10  120.97    8.68    9.17    3.46    7.14    0.00  215.55   58.08   92.96   22.64    0.01    0.01    0.01    0.13    0.74     0.01    0.01    0.00    0.00
   11  194.96   22.62   24.44   13.49   54.90    0.00  265.25   36.43   48.70   62.62    0.01    0.01    0.03    1.21    0.27     0.03    0.04    0.01    0.00
   12  129.69   19.03   24.87   26.89   52.30    0.00  272.35   27.03   37.21   81.27    0.01    0.01    0.06    1.03    0.04     0.02    0.04    0.00    0.00

 1986 1209.79  106.43  125.78   89.36  186.46    0.00  272.35  767.39 1226.23  362.51    0.07    0.17    0.45    5.85   37.48     0.14    0.16    0.04    0.00
1
    SWAT Jun 11 2014    VER 2012/Rev 627                                            

    General Input/Output section (file.cio):                                        
    11/15/2017 12:00:00 AM ARCGIS-SWAT interface AV                                 
                                                                                    
    FINAL VALUES

1
    SWAT Jun 11 2014    VER 2012/Rev 627                                            

    General Input/Output section (file.cio):                                        
    11/15/2017 12:00:00 AM ARCGIS-SWAT interface AV                                 
                                                                                    
                                            Average Plant Values (kg/ha)

  HRU       1 SUB   1 HAY   Yld =  9889.6 BIOM =  17617.8
  HRU       2 SUB   1 HAY   Yld =  9885.7 BIOM =  17610.4
  HRU       3 SUB   1 HAY   Yld =  9890.5 BIOM =  17619.4
  HRU       4 SUB   1 HAY   Yld =  9890.3 BIOM =  17619.1
  HRU       5 SUB   1 PAST  Yld =  1990.6 BIOM =   7490.4
  HRU       6 SUB   1 PAST  Yld =  1990.0 BIOM =   7488.6
  HRU       7 SUB   1 PAST  Yld =  1950.1 BIOM =   7352.9
  HRU       8 SUB   1 PAST  Yld =  1988.0 BIOM =   7481.8
  HRU       9 SUB   1 FRSD  Yld =  5245.2 BIOM =  12610.7
  HRU      10 SUB   1 FRSD  Yld =  5550.3 BIOM =  13015.8
  HRU      11 SUB   1 FRSD  Yld =  5244.7 BIOM =  12610.0
  HRU      12 SUB   1 FRSD  Yld =  5244.8 BIOM =  12610.2
  HRU      13 SUB   1 FRSD  Yld =  3477.8 BIOM =   9101.3
  HRU      14 SUB   1 FRSD  Yld =  3090.4 BIOM =   8035.6
  HRU      15 SUB   1 FRSD  Yld =  3086.8 BIOM =   8025.8
  HRU      16 SUB   1 FRSD  Yld =  3085.8 BIOM =   8022.9
  HRU      17 SUB   1 FRSD  Yld =  5255.1 BIOM =  12647.5
  HRU      18 SUB   1 FRSD  Yld =  5904.0 BIOM =  13574.4
  HRU      19 SUB   1 FRSD  Yld =  5262.3 BIOM =  12657.7
  HRU      20 SUB   1 FRSD  Yld =  5253.0 BIOM =  12644.5
  HRU      21 SUB   1 WILL  Yld =  5609.0 BIOM =  40014.8
  HRU      22 SUB   1 WILL  Yld =  5609.1 BIOM =  40015.0
  HRU      23 SUB   1 WILL  Yld =  5606.3 BIOM =  39989.1
  HRU      24 SUB   1 WILL  Yld =  5608.7 BIOM =  40013.4
  HRU      25 SUB   1 BERM  Yld =  2160.5 BIOM =  12922.4
  HRU      26 SUB   1 BERM  Yld =  2159.6 BIOM =  12923.8
  HRU      27 SUB   1 BERM  Yld =  2164.0 BIOM =  12917.6
  HRU      28 SUB   1 BERM  Yld =  2230.2 BIOM =  12831.9
  HRU      29 SUB   2 HAY   Yld =  5702.2 BIOM =  16148.8
  HRU      30 SUB   2 HAY   Yld =  5676.4 BIOM =  16080.2
  HRU      31 SUB   2 HAY   Yld =  5703.4 BIOM =  16151.5
  HRU      32 SUB   2 HAY   Yld =  5703.1 BIOM =  16150.8
  HRU      33 SUB   2 HAY   Yld =  5690.2 BIOM =  16401.4
  HRU      34 SUB   2 HAY   Yld =  5690.5 BIOM =  16402.6
  HRU      35 SUB   2 HAY   Yld =  5683.9 BIOM =  16385.4
  HRU      36 SUB   2 HAY   Yld =  5690.6 BIOM =  16402.9
  HRU      37 SUB   2 HAY   Yld =  5710.1 BIOM =  16408.8
  HRU      38 SUB   2 HAY   Yld =  5710.2 BIOM =  16409.2
  HRU      39 SUB   2 HAY   Yld =  5709.8 BIOM =  16407.5
  HRU      40 SUB   2 HAY   Yld =  5706.6 BIOM =  16400.8
  HRU      41 SUB   2 PAST  Yld =    10.2 BIOM =   7740.8
  HRU      42 SUB   2 PAST  Yld =    10.2 BIOM =   7744.2
  HRU      43 SUB   2 PAST  Yld =    10.6 BIOM =   7609.2
  HRU      44 SUB   2 PAST  Yld =    10.2 BIOM =   7745.2
  HRU      45 SUB   2 FRSD  Yld =  2193.3 BIOM =   7605.6
  HRU      46 SUB   2 FRSD  Yld =  2196.8 BIOM =   7618.0
  HRU      47 SUB   2 FRSD  Yld =  2194.0 BIOM =   7608.2
  HRU      48 SUB   2 FRSD  Yld =  2545.9 BIOM =   8828.9
  HRU      49 SUB   2 FRSD  Yld =  3679.4 BIOM =  12761.5
  HRU      50 SUB   2 FRSD  Yld =  3806.6 BIOM =  13203.0
  HRU      51 SUB   2 FRSD  Yld =  3672.7 BIOM =  12738.3
  HRU      52 SUB   2 FRSD  Yld =  3674.2 BIOM =  12743.7
  HRU      53 SUB   2 FRSD  Yld =  3018.6 BIOM =  10469.0
  HRU      54 SUB   2 FRSD  Yld =  3018.5 BIOM =  10468.8
  HRU      55 SUB   2 FRSD  Yld =  3018.5 BIOM =  10468.8
  HRU      56 SUB   2 FRSD  Yld =  3142.4 BIOM =  10898.5
  HRU      57 SUB   2 FRSD  Yld =  3236.1 BIOM =  11223.7
  HRU      58 SUB   2 FRSD  Yld =  3234.9 BIOM =  11219.5
  HRU      59 SUB   2 FRSD  Yld =  3235.2 BIOM =  11220.5
  HRU      60 SUB   2 FRSD  Yld =  3528.7 BIOM =  12238.7
  HRU      61 SUB   2 WILL  Yld =  4737.8 BIOM =  34029.5
  HRU      62 SUB   2 WILL  Yld =  4366.8 BIOM =  32530.2
  HRU      63 SUB   2 WILL  Yld =  4341.2 BIOM =  32421.5
  HRU      64 SUB   2 WILL  Yld =  4346.7 BIOM =  32444.9
  HRU      65 SUB   2 WILL  Yld =  5320.5 BIOM =  38450.8
  HRU      66 SUB   2 WILL  Yld =  5320.4 BIOM =  38457.0
  HRU      67 SUB   2 WILL  Yld =  5317.3 BIOM =  38392.8
  HRU      68 SUB   2 WILL  Yld =  5320.5 BIOM =  38448.9
  HRU      69 SUB   2 WILL  Yld =  5270.8 BIOM =  37508.2
  HRU      70 SUB   2 WILL  Yld =  5270.8 BIOM =  37508.6
  HRU      71 SUB   2 WILL  Yld =  5270.8 BIOM =  37508.5
  HRU      72 SUB   2 WILL  Yld =  5268.6 BIOM =  37469.8
  HRU      73 SUB   2 BERM  Yld =  1592.6 BIOM =  12497.3
  HRU      74 SUB   2 BERM  Yld =  1595.1 BIOM =  12493.5
  HRU      75 SUB   2 BERM  Yld =  1591.8 BIOM =  12498.4
  HRU      76 SUB   2 BERM  Yld =  1743.2 BIOM =  12323.7
  HRU      77 SUB   2 BERM  Yld =   900.8 BIOM =  14142.5
  HRU      78 SUB   2 BERM  Yld =   789.6 BIOM =  14202.7
  HRU      79 SUB   2 BERM  Yld =   788.9 BIOM =  14203.2
  HRU      80 SUB   2 BERM  Yld =   791.8 BIOM =  14201.2
  HRU      81 SUB   2 BERM  Yld =  1556.4 BIOM =  12418.5
  HRU      82 SUB   2 BERM  Yld =  1692.5 BIOM =  12238.5
  HRU      83 SUB   2 BERM  Yld =  1558.9 BIOM =  12413.9
  HRU      84 SUB   2 BERM  Yld =  1555.6 BIOM =  12419.9
  HRU      85 SUB   3 CORN  Yld =  3821.6 BIOM =  11215.9
  HRU      86 SUB   3 CORN  Yld =  3818.0 BIOM =  11205.4
  HRU      87 SUB   3 CORN  Yld =  3803.6 BIOM =  11163.2
  HRU      88 SUB   3 CORN  Yld =  3822.8 BIOM =  11219.4
  HRU      89 SUB   3 CORN  Yld =  3811.0 BIOM =  11184.8
  HRU      90 SUB   3 CORN  Yld =  3827.7 BIOM =  11233.6
  HRU      91 SUB   3 CORN  Yld =  3826.6 BIOM =  11230.5
  HRU      92 SUB   3 CORN  Yld =  3823.2 BIOM =  11220.5
  HRU      93 SUB   3 CORN  Yld =  3891.1 BIOM =  11420.2
  HRU      94 SUB   3 CORN  Yld =  3915.0 BIOM =  11490.0
  HRU      95 SUB   3 CORN  Yld =  3913.7 BIOM =  11486.2
  HRU      96 SUB   3 CORN  Yld =  3908.7 BIOM =  11471.7
  HRU      97 SUB   3 PAST  Yld =     6.5 BIOM =   6289.9
  HRU      98 SUB   3 PAST  Yld =     6.3 BIOM =   6301.7
  HRU      99 SUB   3 PAST  Yld =     6.3 BIOM =   6306.4
  HRU     100 SUB   3 PAST  Yld =     6.3 BIOM =   6305.3
  HRU     101 SUB   3 PAST  Yld =    10.2 BIOM =   8615.5
  HRU     102 SUB   3 PAST  Yld =    10.1 BIOM =   8624.2
  HRU     103 SUB   3 PAST  Yld =    10.5 BIOM =   8587.6
  HRU     104 SUB   3 PAST  Yld =    10.1 BIOM =   8626.6
  HRU     105 SUB   3 SOYB  Yld =  1517.8 BIOM =   7267.3
  HRU     106 SUB   3 SOYB  Yld =  1517.7 BIOM =   7266.9
  HRU     107 SUB   3 SOYB  Yld =  1517.4 BIOM =   7265.7
  HRU     108 SUB   3 SOYB  Yld =  1517.8 BIOM =   7267.2
  HRU     109 SUB   3 SOYB  Yld =  1517.5 BIOM =   7265.9
  HRU     110 SUB   3 SOYB  Yld =  1517.8 BIOM =   7266.9
  HRU     111 SUB   3 SOYB  Yld =  1517.9 BIOM =   7267.3
  HRU     112 SUB   3 SOYB  Yld =  1517.8 BIOM =   7267.2
  HRU     113 SUB   3 SOYB  Yld =  1537.7 BIOM =   7366.6
  HRU     114 SUB   3 SOYB  Yld =  1537.7 BIOM =   7366.5
  HRU     115 SUB   3 SOYB  Yld =  1537.4 BIOM =   7365.5
  HRU     116 SUB   3 SOYB  Yld =  1537.7 BIOM =   7366.6
  HRU     117 SUB   3 SWCH  Yld =     0.0 BIOM =      0.0
  HRU     118 SUB   3 SWCH  Yld =     0.0 BIOM =      0.0
  HRU     119 SUB   3 SWCH  Yld =     0.0 BIOM =      0.0
  HRU     120 SUB   3 SWCH  Yld =     0.0 BIOM =      0.0
  HRU     121 SUB   3 SWCH  Yld =     0.0 BIOM =      0.0
  HRU     122 SUB   3 SWCH  Yld =     0.0 BIOM =      0.0
  HRU     123 SUB   3 SWCH  Yld =     0.0 BIOM =      0.0
  HRU     124 SUB   3 SWCH  Yld =     0.0 BIOM =      0.0
  HRU     125 SUB   3 SWCH  Yld =     0.0 BIOM =      0.0
  HRU     126 SUB   3 SWCH  Yld =     0.0 BIOM =      0.0
  HRU     127 SUB   3 SWCH  Yld =     0.0 BIOM =      0.0
  HRU     128 SUB   3 SWCH  Yld =     0.0 BIOM =      0.0
  HRU     129 SUB   3 GRAS  Yld =     0.0 BIOM =      0.0
  HRU     130 SUB   3 GRAS  Yld =     0.0 BIOM =      0.0
  HRU     131 SUB   3 GRAS  Yld =     0.0 BIOM =      0.0
  HRU     132 SUB   3 GRAS  Yld =     0.0 BIOM =      0.0
  HRU     133 SUB   3 GRAS  Yld =     0.0 BIOM =      0.0
  HRU     134 SUB   3 GRAS  Yld =     0.0 BIOM =      0.0
  HRU     135 SUB   3 GRAS  Yld =     0.0 BIOM =      0.0
  HRU     136 SUB   3 GRAS  Yld =     0.0 BIOM =      0.0
  HRU     137 SUB   3 GRAS  Yld =     0.0 BIOM =      0.0
  HRU     138 SUB   3 GRAS  Yld =     0.0 BIOM =      0.0
  HRU     139 SUB   3 GRAS  Yld =     0.0 BIOM =      0.0
  HRU     140 SUB   3 GRAS  Yld =     0.0 BIOM =      0.0
  HRU     141 SUB   3 FRSD  Yld =  3690.0 BIOM =  12802.0
  HRU     142 SUB   3 FRSD  Yld =  3690.3 BIOM =  12802.9
  HRU     143 SUB   3 FRSD  Yld =  3690.3 BIOM =  12803.2
  HRU     144 SUB   3 FRSD  Yld =  3690.4 BIOM =  12803.3
  HRU     145 SUB   3 FRSD  Yld =  3734.0 BIOM =  12954.8
  HRU     146 SUB   3 FRSD  Yld =  3734.0 BIOM =  12954.8
  HRU     147 SUB   3 FRSD  Yld =  3734.0 BIOM =  12954.8
  HRU     148 SUB   3 FRSD  Yld =  3734.0 BIOM =  12954.8
  HRU     149 SUB   3 FRSD  Yld =  3690.2 BIOM =  12802.9
  HRU     150 SUB   3 FRSD  Yld =  3690.0 BIOM =  12802.2
  HRU     151 SUB   3 FRSD  Yld =  3690.4 BIOM =  12803.3
  HRU     152 SUB   3 FRSD  Yld =  3690.3 BIOM =  12803.2
  HRU     153 SUB   3 FRSD  Yld =  3713.1 BIOM =  12882.1
  HRU     154 SUB   3 FRSD  Yld =  3712.6 BIOM =  12880.4
  HRU     155 SUB   3 FRSD  Yld =  3710.0 BIOM =  12871.3
  HRU     156 SUB   3 FRSD  Yld =  3713.2 BIOM =  12882.6
  HRU     157 SUB   3 WETF  Yld = 12842.1 BIOM =  12842.1
  HRU     158 SUB   3 WETF  Yld = 12839.6 BIOM =  12839.6
  HRU     159 SUB   3 WETF  Yld = 12841.8 BIOM =  12841.8
  HRU     160 SUB   3 WETF  Yld = 12842.3 BIOM =  12842.3
  HRU     161 SUB   3 WETF  Yld = 12994.9 BIOM =  12994.9
  HRU     162 SUB   3 WETF  Yld = 12994.5 BIOM =  12994.5
  HRU     163 SUB   3 WETF  Yld = 12994.8 BIOM =  12994.8
  HRU     164 SUB   3 WETF  Yld = 12994.8 BIOM =  12994.8
  HRU     165 SUB   3 WETF  Yld = 12654.4 BIOM =  12654.4
  HRU     166 SUB   3 WETF  Yld = 12729.0 BIOM =  12729.0
  HRU     167 SUB   3 WETF  Yld = 12880.5 BIOM =  12880.5
  HRU     168 SUB   3 WETF  Yld = 12673.8 BIOM =  12673.8
  HRU     169 SUB   3 BERM  Yld =  8729.7 BIOM =  12379.7
  HRU     170 SUB   3 BERM  Yld =  8753.2 BIOM =  12414.6
  HRU     171 SUB   3 BERM  Yld =  8755.0 BIOM =  12417.2
  HRU     172 SUB   3 BERM  Yld =  8749.0 BIOM =  12408.2
  HRU     173 SUB   3 BERM  Yld =  7659.3 BIOM =  10757.5
  HRU     174 SUB   3 BERM  Yld =  7618.4 BIOM =  10698.7
  HRU     175 SUB   3 BERM  Yld =  7670.6 BIOM =  10773.6
  HRU     176 SUB   3 BERM  Yld =  7673.4 BIOM =  10777.7
  HRU     177 SUB   4 PAST  Yld =     8.5 BIOM =   4163.4
  HRU     178 SUB   4 PAST  Yld =     8.2 BIOM =   3986.4
  HRU     179 SUB   4 PAST  Yld =     8.2 BIOM =   3996.7
  HRU     180 SUB   4 PAST  Yld =     8.2 BIOM =   3988.8
  HRU     181 SUB   4 PAST  Yld =     7.3 BIOM =    817.5
  HRU     182 SUB   4 PAST  Yld =     6.8 BIOM =    766.8
  HRU     183 SUB   4 PAST  Yld =     6.8 BIOM =    767.4
  HRU     184 SUB   4 PAST  Yld =     6.8 BIOM =    769.3
  HRU     185 SUB   4 FRSD  Yld =  2387.1 BIOM =   8277.4
  HRU     186 SUB   4 FRSD  Yld =  2111.4 BIOM =   7321.0
  HRU     187 SUB   4 FRSD  Yld =  2103.4 BIOM =   7293.4
  HRU     188 SUB   4 FRSD  Yld =  2105.4 BIOM =   7300.3
  HRU     189 SUB   4 FRSD  Yld =  3487.6 BIOM =  12095.5
  HRU     190 SUB   4 FRSD  Yld =  3325.8 BIOM =  11534.1
  HRU     191 SUB   4 FRSD  Yld =  3325.1 BIOM =  11531.8
  HRU     192 SUB   4 FRSD  Yld =  3327.9 BIOM =  11541.5
  HRU     193 SUB   4 FRSD  Yld =  3741.0 BIOM =  12974.7
  HRU     194 SUB   4 FRSD  Yld =  3741.3 BIOM =  12975.8
  HRU     195 SUB   4 FRSD  Yld =  3742.9 BIOM =  12981.2
  HRU     196 SUB   4 FRSD  Yld =  3790.8 BIOM =  13147.4
  HRU     197 SUB   4 FRSD  Yld =  1696.2 BIOM =   5880.6
  HRU     198 SUB   4 FRSD  Yld =  1326.7 BIOM =   4598.7
  HRU     199 SUB   4 FRSD  Yld =  1323.4 BIOM =   4587.3
  HRU     200 SUB   4 FRSD  Yld =  1322.4 BIOM =   4583.8
  HRU     201 SUB   4 FRSD  Yld =  3223.4 BIOM =  11178.9
  HRU     202 SUB   4 FRSD  Yld =  3224.4 BIOM =  11182.5
  HRU     203 SUB   4 FRSD  Yld =  3223.1 BIOM =  11178.0
  HRU     204 SUB   4 FRSD  Yld =  3805.3 BIOM =  13197.8
  HRU     205 SUB   4 WILL  Yld =  5250.3 BIOM =  37305.4
  HRU     206 SUB   4 WILL  Yld =  5185.7 BIOM =  37001.8
  HRU     207 SUB   4 WILL  Yld =  5186.6 BIOM =  37006.2
  HRU     208 SUB   4 WILL  Yld =  5190.1 BIOM =  37022.5
  HRU     209 SUB   4 WILL  Yld =  1377.2 BIOM =  17355.1
  HRU     210 SUB   4 WILL  Yld =  1214.9 BIOM =  16645.5
  HRU     211 SUB   4 WILL  Yld =  1208.6 BIOM =  16617.2
  HRU     212 SUB   4 WILL  Yld =  1210.3 BIOM =  16624.9
  HRU     213 SUB   4 BERM  Yld =    50.3 BIOM =  14880.3
  HRU     214 SUB   4 BERM  Yld =    48.1 BIOM =  14900.6
  HRU     215 SUB   4 BERM  Yld =    48.2 BIOM =  14899.6
  HRU     216 SUB   4 BERM  Yld =    48.1 BIOM =  14901.0
  HRU     217 SUB   4 BERM  Yld =    25.0 BIOM =  14787.5
  HRU     218 SUB   4 BERM  Yld =    24.9 BIOM =  14788.3
  HRU     219 SUB   4 BERM  Yld =    24.9 BIOM =  14788.6
  HRU     220 SUB   4 BERM  Yld =    26.0 BIOM =  14772.5
  HRU     221 SUB   4 BERM  Yld =   112.0 BIOM =  14785.4
  HRU     222 SUB   4 BERM  Yld =   119.7 BIOM =  14753.5
  HRU     223 SUB   4 BERM  Yld =   111.7 BIOM =  14787.2
  HRU     224 SUB   4 BERM  Yld =   111.7 BIOM =  14786.8
  HRU     225 SUB   4 BERM  Yld =    29.0 BIOM =  14747.2
  HRU     226 SUB   4 BERM  Yld =    29.1 BIOM =  14746.1
  HRU     227 SUB   4 BERM  Yld =    29.0 BIOM =  14747.0
  HRU     228 SUB   4 BERM  Yld =    30.2 BIOM =  14734.0
  HRU     229 SUB   4 BERM  Yld =   194.7 BIOM =  14567.5
  HRU     230 SUB   4 BERM  Yld =   155.2 BIOM =  14679.8
  HRU     231 SUB   4 BERM  Yld =   157.3 BIOM =  14674.3
  HRU     232 SUB   4 BERM  Yld =   155.6 BIOM =  14677.4
  HRU     233 SUB   4 BERM  Yld =    29.2 BIOM =  14656.4
  HRU     234 SUB   4 BERM  Yld =    29.9 BIOM =  14652.3
  HRU     235 SUB   4 BERM  Yld =    29.3 BIOM =  14655.9
  HRU     236 SUB   4 BERM  Yld =    29.1 BIOM =  14656.6
  HRU     237 SUB   4 BERM  Yld =    33.1 BIOM =  14673.9
  HRU     238 SUB   4 BERM  Yld =    33.1 BIOM =  14674.3
  HRU     239 SUB   4 BERM  Yld =    33.1 BIOM =  14674.5
  HRU     240 SUB   4 BERM  Yld =    33.4 BIOM =  14661.4
  HRU     241 SUB   4 BERM  Yld =   281.3 BIOM =  14449.7
  HRU     242 SUB   4 BERM  Yld =   342.2 BIOM =  14343.8
  HRU     243 SUB   4 BERM  Yld =   285.1 BIOM =  14443.7
  HRU     244 SUB   4 BERM  Yld =   282.3 BIOM =  14448.2
  HRU     245 SUB   4 BERM  Yld =    49.4 BIOM =  14607.5
  HRU     246 SUB   4 BERM  Yld =    47.9 BIOM =  14617.4
  HRU     247 SUB   4 BERM  Yld =    47.6 BIOM =  14619.4
  HRU     248 SUB   4 BERM  Yld =    47.6 BIOM =  14618.9
  HRU     249 SUB   4 BERM  Yld =  2375.6 BIOM =  12075.1
  HRU     250 SUB   4 BERM  Yld =  2514.0 BIOM =  11902.0
  HRU     251 SUB   4 BERM  Yld =  2381.8 BIOM =  12067.6
  HRU     252 SUB   4 BERM  Yld =  2377.1 BIOM =  12073.3
  HRU     253 SUB   4 BERM  Yld =  1803.4 BIOM =  13488.7
  HRU     254 SUB   4 BERM  Yld =  1614.6 BIOM =  13604.1
  HRU     255 SUB   4 BERM  Yld =  1612.5 BIOM =  13604.8
  HRU     256 SUB   4 BERM  Yld =  1623.4 BIOM =  13601.3
  HRU     257 SUB   4 BERM  Yld =  2541.9 BIOM =  11626.7
  HRU     258 SUB   4 BERM  Yld =  2378.5 BIOM =  11817.9
  HRU     259 SUB   4 BERM  Yld =  2373.6 BIOM =  11824.1
  HRU     260 SUB   4 BERM  Yld =  2372.1 BIOM =  11825.9
  HRU     261 SUB   5 PAST  Yld =     7.6 BIOM =   2978.2
  HRU     262 SUB   5 PAST  Yld =     8.0 BIOM =   3119.6
  HRU     263 SUB   5 PAST  Yld =     7.6 BIOM =   2984.9
  HRU     264 SUB   5 PAST  Yld =     7.6 BIOM =   2976.4
  HRU     265 SUB   5 PAST  Yld =     9.1 BIOM =   4165.1
  HRU     266 SUB   5 PAST  Yld =     8.7 BIOM =   4003.6
  HRU     267 SUB   5 PAST  Yld =     8.7 BIOM =   4001.4
  HRU     268 SUB   5 PAST  Yld =     8.8 BIOM =   4011.4
  HRU     269 SUB   5 FRSD  Yld =  2987.0 BIOM =  10359.4
  HRU     270 SUB   5 FRSD  Yld =  2986.7 BIOM =  10358.3
  HRU     271 SUB   5 FRSD  Yld =  3149.1 BIOM =  10921.5
  HRU     272 SUB   5 FRSD  Yld =  2988.0 BIOM =  10362.8
  HRU     273 SUB   5 FRSD  Yld =  3265.9 BIOM =  11326.9
  HRU     274 SUB   5 FRSD  Yld =  3268.5 BIOM =  11335.9
  HRU     275 SUB   5 FRSD  Yld =  3266.5 BIOM =  11328.9
  HRU     276 SUB   5 FRSD  Yld =  3375.7 BIOM =  11707.8
  HRU     277 SUB   5 FRSD  Yld =  1537.6 BIOM =   5330.6
  HRU     278 SUB   5 FRSD  Yld =  1316.9 BIOM =   4565.0
  HRU     279 SUB   5 FRSD  Yld =  1318.1 BIOM =   4569.2
  HRU     280 SUB   5 FRSD  Yld =  1322.7 BIOM =   4584.9
  HRU     281 SUB   5 WILL  Yld =  4649.0 BIOM =  34417.1
  HRU     282 SUB   5 WILL  Yld =  4651.8 BIOM =  34430.5
  HRU     283 SUB   5 WILL  Yld =  4661.1 BIOM =  34475.0
  HRU     284 SUB   5 WILL  Yld =  4840.9 BIOM =  35329.3
  HRU     285 SUB   5 WILL  Yld =  5197.5 BIOM =  37021.7
  HRU     286 SUB   5 WILL  Yld =  5198.4 BIOM =  37025.9
  HRU     287 SUB   5 WILL  Yld =  5257.9 BIOM =  37305.2
  HRU     288 SUB   5 WILL  Yld =  5201.6 BIOM =  37040.8
  HRU     289 SUB   5 BERM  Yld =    25.4 BIOM =  14826.3
  HRU     290 SUB   5 BERM  Yld =    25.4 BIOM =  14826.0
  HRU     291 SUB   5 BERM  Yld =    25.5 BIOM =  14824.9
  HRU     292 SUB   5 BERM  Yld =    26.5 BIOM =  14804.4
  HRU     293 SUB   5 BERM  Yld =    25.8 BIOM =  14853.5
  HRU     294 SUB   5 BERM  Yld =    26.8 BIOM =  14840.9
  HRU     295 SUB   5 BERM  Yld =    25.9 BIOM =  14852.8
  HRU     296 SUB   5 BERM  Yld =    25.8 BIOM =  14853.7
  HRU     297 SUB   5 BERM  Yld =    29.3 BIOM =  14787.4
  HRU     298 SUB   5 BERM  Yld =    29.3 BIOM =  14787.8
  HRU     299 SUB   5 BERM  Yld =    30.3 BIOM =  14767.9
  HRU     300 SUB   5 BERM  Yld =    29.3 BIOM =  14786.3
  HRU     301 SUB   5 BERM  Yld =    30.0 BIOM =  14739.7
  HRU     302 SUB   5 BERM  Yld =    30.5 BIOM =  14734.4
  HRU     303 SUB   5 BERM  Yld =    30.1 BIOM =  14738.9
  HRU     304 SUB   5 BERM  Yld =    30.0 BIOM =  14739.9
  HRU     305 SUB   5 BERM  Yld =  2496.2 BIOM =  12704.5
  HRU     306 SUB   5 BERM  Yld =  2677.3 BIOM =  12539.7
  HRU     307 SUB   5 BERM  Yld =  2506.6 BIOM =  12692.1
  HRU     308 SUB   5 BERM  Yld =  2498.6 BIOM =  12701.9
  HRU     309 SUB   5 BERM  Yld =  1626.4 BIOM =  13596.8
  HRU     310 SUB   5 BERM  Yld =  1801.6 BIOM =  13512.8
  HRU     311 SUB   5 BERM  Yld =  1637.5 BIOM =  13593.9
  HRU     312 SUB   5 BERM  Yld =  1629.0 BIOM =  13597.9
  HRU     313 SUB   6 PAST  Yld =    10.0 BIOM =   3813.3
  HRU     314 SUB   6 PAST  Yld =    10.0 BIOM =   3816.2
  HRU     315 SUB   6 PAST  Yld =    10.5 BIOM =   3865.7
  HRU     316 SUB   6 PAST  Yld =    10.0 BIOM =   3812.4
  HRU     317 SUB   6 PAST  Yld =    11.9 BIOM =   4807.0
  HRU     318 SUB   6 PAST  Yld =    12.4 BIOM =   4851.9
  HRU     319 SUB   6 PAST  Yld =    11.9 BIOM =   4819.4
  HRU     320 SUB   6 PAST  Yld =    11.9 BIOM =   4818.7
  HRU     321 SUB   6 PAST  Yld =    19.4 BIOM =   1228.8
  HRU     322 SUB   6 PAST  Yld =    16.2 BIOM =   1115.0
  HRU     323 SUB   6 PAST  Yld =    16.1 BIOM =   1109.9
  HRU     324 SUB   6 PAST  Yld =    16.1 BIOM =   1111.1
  HRU     325 SUB   6 PAST  Yld =    12.7 BIOM =   6411.3
  HRU     326 SUB   6 PAST  Yld =    11.7 BIOM =   6225.8
  HRU     327 SUB   6 PAST  Yld =    11.8 BIOM =   6235.5
  HRU     328 SUB   6 PAST  Yld =    11.7 BIOM =   6228.0
  HRU     329 SUB   6 FRSD  Yld =  1766.0 BIOM =   6127.1
  HRU     330 SUB   6 FRSD  Yld =  2175.2 BIOM =   7546.7
  HRU     331 SUB   6 FRSD  Yld =  1770.8 BIOM =   6143.6
  HRU     332 SUB   6 FRSD  Yld =  1767.2 BIOM =   6131.1
  HRU     333 SUB   6 FRSD  Yld =  3147.0 BIOM =  10918.2
  HRU     334 SUB   6 FRSD  Yld =  3146.5 BIOM =  10916.4
  HRU     335 SUB   6 FRSD  Yld =  3251.0 BIOM =  11279.0
  HRU     336 SUB   6 FRSD  Yld =  3146.9 BIOM =  10917.9
  HRU     337 SUB   6 FRSD  Yld =  3458.0 BIOM =  11997.2
  HRU     338 SUB   6 FRSD  Yld =  3189.2 BIOM =  11064.5
  HRU     339 SUB   6 FRSD  Yld =  3192.3 BIOM =  11075.4
  HRU     340 SUB   6 FRSD  Yld =  3188.4 BIOM =  11061.8
  HRU     341 SUB   6 WILL  Yld =  5365.1 BIOM =  38074.8
  HRU     342 SUB   6 WILL  Yld =  5334.1 BIOM =  37944.3
  HRU     343 SUB   6 WILL  Yld =  5333.5 BIOM =  37941.9
  HRU     344 SUB   6 WILL  Yld =  5336.1 BIOM =  37953.0
  HRU     345 SUB   6 WILL  Yld =  3636.8 BIOM =  28940.2
  HRU     346 SUB   6 WILL  Yld =  3640.1 BIOM =  28955.9
  HRU     347 SUB   6 WILL  Yld =  3650.8 BIOM =  29006.0
  HRU     348 SUB   6 WILL  Yld =  3716.2 BIOM =  29312.1
  HRU     349 SUB   6 WILL  Yld =  5395.3 BIOM =  38142.4
  HRU     350 SUB   6 WILL  Yld =  5395.3 BIOM =  38142.6
  HRU     351 SUB   6 WILL  Yld =  5390.9 BIOM =  38108.7
  HRU     352 SUB   6 WILL  Yld =  5395.3 BIOM =  38141.3
  HRU     353 SUB   6 WILL  Yld =  2098.4 BIOM =  20389.6
  HRU     354 SUB   6 WILL  Yld =  2263.9 BIOM =  20940.8
  HRU     355 SUB   6 WILL  Yld =  2088.4 BIOM =  20359.8
  HRU     356 SUB   6 WILL  Yld =  2090.7 BIOM =  20366.7
  HRU     357 SUB   6 WILL  Yld =  5395.7 BIOM =  38429.9
  HRU     358 SUB   6 WILL  Yld =  5396.1 BIOM =  38432.7
  HRU     359 SUB   6 WILL  Yld =  5390.9 BIOM =  38390.0
  HRU     360 SUB   6 WILL  Yld =  5396.0 BIOM =  38432.0
  HRU     361 SUB   6 BERM  Yld =    25.3 BIOM =  14792.0
  HRU     362 SUB   6 BERM  Yld =    25.3 BIOM =  14791.8
  HRU     363 SUB   6 BERM  Yld =    25.3 BIOM =  14791.0
  HRU     364 SUB   6 BERM  Yld =    26.2 BIOM =  14778.5
  HRU     365 SUB   6 BERM  Yld =    27.7 BIOM =  14874.7
  HRU     366 SUB   6 BERM  Yld =    29.0 BIOM =  14863.2
  HRU     367 SUB   6 BERM  Yld =    27.7 BIOM =  14874.0
  HRU     368 SUB   6 BERM  Yld =    27.6 BIOM =  14874.9
  HRU     369 SUB   6 BERM  Yld =   191.9 BIOM =  14443.7
  HRU     370 SUB   6 BERM  Yld =   191.7 BIOM =  14444.4
  HRU     371 SUB   6 BERM  Yld =   192.5 BIOM =  14441.7
  HRU     372 SUB   6 BERM  Yld =   273.2 BIOM =  14265.3
  HRU     373 SUB   6 BERM  Yld =    25.8 BIOM =  14664.6
  HRU     374 SUB   6 BERM  Yld =    26.0 BIOM =  14664.0
  HRU     375 SUB   6 BERM  Yld =    28.6 BIOM =  14654.8
  HRU     376 SUB   6 BERM  Yld =    25.8 BIOM =  14664.8
  HRU     377 SUB   6 BERM  Yld =    23.4 BIOM =  14706.6
  HRU     378 SUB   6 BERM  Yld =    24.1 BIOM =  14700.2
  HRU     379 SUB   6 BERM  Yld =    23.3 BIOM =  14707.0
  HRU     380 SUB   6 BERM  Yld =    23.3 BIOM =  14707.1
  HRU     381 SUB   6 BERM  Yld =    32.6 BIOM =  14803.7
  HRU     382 SUB   6 BERM  Yld =    32.5 BIOM =  14815.7
  HRU     383 SUB   6 BERM  Yld =    32.5 BIOM =  14804.6
  HRU     384 SUB   6 BERM  Yld =    32.9 BIOM =  14799.8
  HRU     385 SUB   6 BERM  Yld =    76.7 BIOM =  14538.1
  HRU     386 SUB   6 BERM  Yld =    71.3 BIOM =  14549.1
  HRU     387 SUB   6 BERM  Yld =    70.3 BIOM =  14552.5
  HRU     388 SUB   6 BERM  Yld =    70.0 BIOM =  14552.8
  HRU     389 SUB   6 BERM  Yld =    30.6 BIOM =  14626.6
  HRU     390 SUB   6 BERM  Yld =    30.7 BIOM =  14626.5
  HRU     391 SUB   6 BERM  Yld =    30.8 BIOM =  14626.0
  HRU     392 SUB   6 BERM  Yld =    31.7 BIOM =  14613.2
  HRU     393 SUB   6 BERM  Yld =  2044.1 BIOM =  12420.5
  HRU     394 SUB   6 BERM  Yld =  2049.0 BIOM =  12408.8
  HRU     395 SUB   6 BERM  Yld =  2125.9 BIOM =  12250.2
  HRU     396 SUB   6 BERM  Yld =  2045.2 BIOM =  12417.4
  HRU     397 SUB   6 BERM  Yld =  1621.0 BIOM =  13321.1
  HRU     398 SUB   6 BERM  Yld =  1618.9 BIOM =  13322.2
  HRU     399 SUB   6 BERM  Yld =  1629.1 BIOM =  13316.8
  HRU     400 SUB   6 BERM  Yld =  1768.6 BIOM =  13236.4
  HRU     401 SUB   6 BERM  Yld =  1937.1 BIOM =  12269.9
  HRU     402 SUB   6 BERM  Yld =  2169.6 BIOM =  11935.2
  HRU     403 SUB   6 BERM  Yld =  1941.6 BIOM =  12263.5
  HRU     404 SUB   6 BERM  Yld =  1935.7 BIOM =  12271.9
  HRU     405 SUB   6 BERM  Yld =  2040.4 BIOM =  12201.0
  HRU     406 SUB   6 BERM  Yld =  2039.3 BIOM =  12202.6
  HRU     407 SUB   6 BERM  Yld =  2043.8 BIOM =  12196.2
  HRU     408 SUB   6 BERM  Yld =  2104.1 BIOM =  12100.0
  HRU     409 SUB   6 BERM  Yld =  2000.4 BIOM =  13044.1
  HRU     410 SUB   6 BERM  Yld =  1995.3 BIOM =  13049.2
  HRU     411 SUB   6 BERM  Yld =  2097.8 BIOM =  12965.8
  HRU     412 SUB   6 BERM  Yld =  1993.9 BIOM =  13050.2
  HRU     413 SUB   7 PAST  Yld =     8.7 BIOM =   6172.4
  HRU     414 SUB   7 PAST  Yld =     9.4 BIOM =   6249.5
  HRU     415 SUB   7 PAST  Yld =     8.6 BIOM =   6164.6
  HRU     416 SUB   7 PAST  Yld =     8.8 BIOM =   6198.0
  HRU     417 SUB   7 PAST  Yld =    17.2 BIOM =   8504.8
  HRU     418 SUB   7 PAST  Yld =    15.4 BIOM =   8618.5
  HRU     419 SUB   7 PAST  Yld =    14.8 BIOM =   8660.1
  HRU     420 SUB   7 PAST  Yld =    15.0 BIOM =   8651.5
  HRU     421 SUB   7 SOYB  Yld =  1461.6 BIOM =   7003.5
  HRU     422 SUB   7 SOYB  Yld =  1465.6 BIOM =   7021.5
  HRU     423 SUB   7 SOYB  Yld =  1465.7 BIOM =   7022.1
  HRU     424 SUB   7 SOYB  Yld =  1464.9 BIOM =   7018.2
  HRU     425 SUB   7 SOYB  Yld =  1467.1 BIOM =   7031.5
  HRU     426 SUB   7 SOYB  Yld =  1465.7 BIOM =   7025.4
  HRU     427 SUB   7 SOYB  Yld =  1463.0 BIOM =   7013.6
  HRU     428 SUB   7 SOYB  Yld =  1466.7 BIOM =   7029.7
  HRU     429 SUB   7 SWCH  Yld =     0.0 BIOM =      0.0
  HRU     430 SUB   7 SWCH  Yld =     0.0 BIOM =      0.0
  HRU     431 SUB   7 SWCH  Yld =     0.0 BIOM =      0.0
  HRU     432 SUB   7 SWCH  Yld =     0.0 BIOM =      0.0
  HRU     433 SUB   7 SWCH  Yld =     0.0 BIOM =      0.0
  HRU     434 SUB   7 SWCH  Yld =     0.0 BIOM =      0.0
  HRU     435 SUB   7 SWCH  Yld =     0.0 BIOM =      0.0
  HRU     436 SUB   7 SWCH  Yld =     0.0 BIOM =      0.0
  HRU     437 SUB   7 FRSD  Yld =  3609.7 BIOM =  12523.4
  HRU     438 SUB   7 FRSD  Yld =  3630.5 BIOM =  12595.7
  HRU     439 SUB   7 FRSD  Yld =  3634.9 BIOM =  12610.7
  HRU     440 SUB   7 FRSD  Yld =  3634.5 BIOM =  12609.5
  HRU     441 SUB   7 FRSD  Yld =  3661.8 BIOM =  12704.3
  HRU     442 SUB   7 FRSD  Yld =  3659.3 BIOM =  12695.5
  HRU     443 SUB   7 FRSD  Yld =  3661.2 BIOM =  12702.2
  HRU     444 SUB   7 FRSD  Yld =  3615.2 BIOM =  12542.4
  HRU     445 SUB   7 FRSD  Yld =  3650.9 BIOM =  12666.3
  HRU     446 SUB   7 FRSD  Yld =  3649.1 BIOM =  12660.2
  HRU     447 SUB   7 FRSD  Yld =  3651.2 BIOM =  12667.3
  HRU     448 SUB   7 FRSD  Yld =  3595.6 BIOM =  12474.4
  HRU     449 SUB   7 WATR  Yld =     0.0 BIOM =      0.0
  HRU     450 SUB   7 WATR  Yld =     0.0 BIOM =      0.0
  HRU     451 SUB   7 WATR  Yld =     0.0 BIOM =      0.0
  HRU     452 SUB   7 WATR  Yld =     0.0 BIOM =      0.0
  HRU     453 SUB   7 WATR  Yld =     0.0 BIOM =      0.0
  HRU     454 SUB   7 WATR  Yld =     0.0 BIOM =      0.0
  HRU     455 SUB   7 WATR  Yld =     0.0 BIOM =      0.0
  HRU     456 SUB   7 WATR  Yld =     0.0 BIOM =      0.0
  HRU     457 SUB   7 BERM  Yld =  9833.5 BIOM =  13947.7
  HRU     458 SUB   7 BERM  Yld =  9861.3 BIOM =  13987.3
  HRU     459 SUB   7 BERM  Yld =  9869.7 BIOM =  13999.1
  HRU     460 SUB   7 BERM  Yld =  9697.5 BIOM =  13754.8
  HRU     461 SUB   7 BERM  Yld =  9172.0 BIOM =  12931.2
  HRU     462 SUB   7 BERM  Yld =  9323.4 BIOM =  13151.1
  HRU     463 SUB   7 BERM  Yld =  9383.9 BIOM =  13238.3
  HRU     464 SUB   7 BERM  Yld =  9368.3 BIOM =  13215.9
  HRU     465 SUB   8 HAY   Yld =  5718.2 BIOM =  15814.5
  HRU     466 SUB   8 HAY   Yld =  5717.3 BIOM =  15812.4
  HRU     467 SUB   8 HAY   Yld =  5718.0 BIOM =  15814.0
  HRU     468 SUB   8 HAY   Yld =  5692.2 BIOM =  15755.9
  HRU     469 SUB   8 HAY   Yld =  5684.2 BIOM =  15747.5
  HRU     470 SUB   8 HAY   Yld =  5663.4 BIOM =  15702.5
  HRU     471 SUB   8 HAY   Yld =  5684.1 BIOM =  15747.2
  HRU     472 SUB   8 HAY   Yld =  5683.6 BIOM =  15745.9
  HRU     473 SUB   8 HAY   Yld =  5720.8 BIOM =  15838.6
  HRU     474 SUB   8 HAY   Yld =  5720.2 BIOM =  15837.3
  HRU     475 SUB   8 HAY   Yld =  5720.7 BIOM =  15838.3
  HRU     476 SUB   8 HAY   Yld =  5695.8 BIOM =  15778.5
  HRU     477 SUB   8 PAST  Yld =     7.1 BIOM =   6790.9
  HRU     478 SUB   8 PAST  Yld =     7.5 BIOM =   6742.2
  HRU     479 SUB   8 PAST  Yld =     7.1 BIOM =   6789.5
  HRU     480 SUB   8 PAST  Yld =     7.1 BIOM =   6791.3
  HRU     481 SUB   8 PAST  Yld =     8.1 BIOM =   5957.8
  HRU     482 SUB   8 PAST  Yld =     8.1 BIOM =   5958.7
  HRU     483 SUB   8 PAST  Yld =     8.6 BIOM =   5988.2
  HRU     484 SUB   8 PAST  Yld =     8.1 BIOM =   5957.6
  HRU     485 SUB   8 PAST  Yld =     8.3 BIOM =   7513.1
  HRU     486 SUB   8 PAST  Yld =     8.3 BIOM =   7514.6
  HRU     487 SUB   8 PAST  Yld =     8.3 BIOM =   7515.1
  HRU     488 SUB   8 PAST  Yld =     8.5 BIOM =   7469.3
  HRU     489 SUB   8 PAST  Yld =    11.7 BIOM =   8723.9
  HRU     490 SUB   8 PAST  Yld =    11.7 BIOM =   8725.2
  HRU     491 SUB   8 PAST  Yld =    11.7 BIOM =   8719.6
  HRU     492 SUB   8 PAST  Yld =    11.9 BIOM =   8520.1
  HRU     493 SUB   8 FRSD  Yld =  3662.8 BIOM =  12707.7
  HRU     494 SUB   8 FRSD  Yld =  3662.8 BIOM =  12707.7
  HRU     495 SUB   8 FRSD  Yld =  3660.4 BIOM =  12699.3
  HRU     496 SUB   8 FRSD  Yld =  3662.8 BIOM =  12707.7
  HRU     497 SUB   8 FRSD  Yld =  3579.2 BIOM =  12417.8
  HRU     498 SUB   8 FRSD  Yld =  3372.2 BIOM =  11699.5
  HRU     499 SUB   8 FRSD  Yld =  3370.8 BIOM =  11694.5
  HRU     500 SUB   8 FRSD  Yld =  3371.1 BIOM =  11695.6
  HRU     501 SUB   8 FRSD  Yld =  3660.1 BIOM =  12698.4
  HRU     502 SUB   8 FRSD  Yld =  3662.8 BIOM =  12707.7
  HRU     503 SUB   8 FRSD  Yld =  3662.8 BIOM =  12707.7
  HRU     504 SUB   8 FRSD  Yld =  3662.8 BIOM =  12707.7
  HRU     505 SUB   8 BERM  Yld =    15.0 BIOM =  14719.6
  HRU     506 SUB   8 BERM  Yld =    15.0 BIOM =  14719.5
  HRU     507 SUB   8 BERM  Yld =    15.0 BIOM =  14719.2
  HRU     508 SUB   8 BERM  Yld =    15.7 BIOM =  14727.3
  HRU     509 SUB   8 BERM  Yld =    18.9 BIOM =  15217.4
  HRU     510 SUB   8 BERM  Yld =    19.0 BIOM =  15214.7
  HRU     511 SUB   8 BERM  Yld =    18.9 BIOM =  15218.1
  HRU     512 SUB   8 BERM  Yld =    19.8 BIOM =  15082.4
  HRU     513 SUB   8 BERM  Yld =   726.2 BIOM =  14062.4
  HRU     514 SUB   8 BERM  Yld =   837.7 BIOM =  14013.9
  HRU     515 SUB   8 BERM  Yld =   728.2 BIOM =  14061.2
  HRU     516 SUB   8 BERM  Yld =   725.8 BIOM =  14062.6
  HRU     517 SUB   8 BERM  Yld =  1056.1 BIOM =  13558.3
  HRU     518 SUB   8 BERM  Yld =  1057.0 BIOM =  13557.1
  HRU     519 SUB   8 BERM  Yld =  1059.9 BIOM =  13553.4
  HRU     520 SUB   8 BERM  Yld =  1248.4 BIOM =  13433.1
  HRU     521 SUB   8 BERM  Yld =  1463.8 BIOM =  12768.2
  HRU     522 SUB   8 BERM  Yld =  1734.0 BIOM =  12476.0
  HRU     523 SUB   8 BERM  Yld =  1460.2 BIOM =  12770.6
  HRU     524 SUB   8 BERM  Yld =  1458.9 BIOM =  12771.4
  HRU     525 SUB   9 PAST  Yld =     6.3 BIOM =   5831.7
  HRU     526 SUB   9 PAST  Yld =     6.5 BIOM =   5776.3
  HRU     527 SUB   9 PAST  Yld =     6.3 BIOM =   5827.8
  HRU     528 SUB   9 PAST  Yld =     6.3 BIOM =   5830.8
  HRU     529 SUB   9 FRSD  Yld =  3661.3 BIOM =  12702.4
  HRU     530 SUB   9 FRSD  Yld =  3658.8 BIOM =  12693.8
  HRU     531 SUB   9 FRSD  Yld =  3661.4 BIOM =  12702.8
  HRU     532 SUB   9 FRSD  Yld =  3661.3 BIOM =  12702.5
  HRU     533 SUB   9 FRSD  Yld =  3370.7 BIOM =  11694.4
  HRU     534 SUB   9 FRSD  Yld =  3371.9 BIOM =  11698.5
  HRU     535 SUB   9 FRSD  Yld =  3584.4 BIOM =  12435.5
  HRU     536 SUB   9 FRSD  Yld =  3370.4 BIOM =  11693.3
  HRU     537 SUB   9 FRSD  Yld =  3663.2 BIOM =  12708.9
  HRU     538 SUB   9 FRSD  Yld =  3663.1 BIOM =  12708.9
  HRU     539 SUB   9 FRSD  Yld =  3663.1 BIOM =  12708.7
  HRU     540 SUB   9 FRSD  Yld =  3660.6 BIOM =  12700.2
  HRU     541 SUB   9 WILL  Yld =  5041.3 BIOM =  36942.7
  HRU     542 SUB   9 WILL  Yld =  5043.7 BIOM =  36919.3
  HRU     543 SUB   9 WILL  Yld =  5043.7 BIOM =  36915.5
  HRU     544 SUB   9 WILL  Yld =  5043.7 BIOM =  36914.4
  HRU     545 SUB   9 BERM  Yld =    14.5 BIOM =  14718.0
  HRU     546 SUB   9 BERM  Yld =    15.5 BIOM =  14727.3
  HRU     547 SUB   9 BERM  Yld =    14.4 BIOM =  14718.4
  HRU     548 SUB   9 BERM  Yld =    14.4 BIOM =  14718.5
  HRU     549 SUB   9 BERM  Yld =    19.9 BIOM =  15080.3
  HRU     550 SUB   9 BERM  Yld =    19.0 BIOM =  15213.6
  HRU     551 SUB   9 BERM  Yld =    19.0 BIOM =  15216.6
  HRU     552 SUB   9 BERM  Yld =    18.9 BIOM =  15217.2
  HRU     553 SUB   9 BERM  Yld =    18.6 BIOM =  14874.7
  HRU     554 SUB   9 BERM  Yld =    18.2 BIOM =  14832.2
  HRU     555 SUB   9 BERM  Yld =    18.3 BIOM =  14838.1
  HRU     556 SUB   9 BERM  Yld =    18.2 BIOM =  14830.3
  HRU     557 SUB   9 BERM  Yld =   638.9 BIOM =  14141.2
  HRU     558 SUB   9 BERM  Yld =   639.8 BIOM =  14140.8
  HRU     559 SUB   9 BERM  Yld =   643.0 BIOM =  14139.4
  HRU     560 SUB   9 BERM  Yld =   703.2 BIOM =  14088.5
  HRU     561 SUB  10 HAY   Yld =  9136.4 BIOM =  16272.2
  HRU     562 SUB  10 HAY   Yld =  9166.4 BIOM =  16339.6
  HRU     563 SUB  10 HAY   Yld =  9164.8 BIOM =  16336.8
  HRU     564 SUB  10 HAY   Yld =  9158.8 BIOM =  16326.1
  HRU     565 SUB  10 HAY   Yld =  9507.6 BIOM =  16975.3
  HRU     566 SUB  10 HAY   Yld =  9507.2 BIOM =  16974.7
  HRU     567 SUB  10 HAY   Yld =  9479.2 BIOM =  16924.7
  HRU     568 SUB  10 HAY   Yld =  9506.2 BIOM =  16972.8
  HRU     569 SUB  10 PAST  Yld =     5.4 BIOM =   6807.0
  HRU     570 SUB  10 PAST  Yld =     4.4 BIOM =   7058.6
  HRU     571 SUB  10 PAST  Yld =     4.3 BIOM =   7063.6
  HRU     572 SUB  10 PAST  Yld =     4.3 BIOM =   7065.1
  HRU     573 SUB  10 PAST  Yld =     7.6 BIOM =   5183.1
  HRU     574 SUB  10 PAST  Yld =     7.7 BIOM =   5182.6
  HRU     575 SUB  10 PAST  Yld =     7.6 BIOM =   5183.2
  HRU     576 SUB  10 PAST  Yld =     9.9 BIOM =   5182.9
  HRU     577 SUB  10 PAST  Yld =     6.3 BIOM =   7589.5
  HRU     578 SUB  10 PAST  Yld =     6.4 BIOM =   7580.3
  HRU     579 SUB  10 PAST  Yld =     6.3 BIOM =   7587.5
  HRU     580 SUB  10 PAST  Yld =     7.5 BIOM =   7409.8
  HRU     581 SUB  10 PAST  Yld =    18.1 BIOM =   6110.3
  HRU     582 SUB  10 PAST  Yld =     8.3 BIOM =   6067.1
  HRU     583 SUB  10 PAST  Yld =     8.4 BIOM =   6069.5
  HRU     584 SUB  10 PAST  Yld =     8.3 BIOM =   6067.7
  HRU     585 SUB  10 FRSD  Yld =  3744.5 BIOM =  12986.1
  HRU     586 SUB  10 FRSD  Yld =  3743.4 BIOM =  12982.3
  HRU     587 SUB  10 FRSD  Yld =  3744.1 BIOM =  12984.9
  HRU     588 SUB  10 FRSD  Yld =  3606.9 BIOM =  12508.7
  HRU     589 SUB  10 FRSD  Yld =  3550.7 BIOM =  12313.8
  HRU     590 SUB  10 FRSD  Yld =  3550.6 BIOM =  12313.5
  HRU     591 SUB  10 FRSD  Yld =  3495.0 BIOM =  12120.4
  HRU     592 SUB  10 FRSD  Yld =  3549.9 BIOM =  12310.9
  HRU     593 SUB  10 FRSD  Yld =  3379.5 BIOM =  11719.8
  HRU     594 SUB  10 FRSD  Yld =  3381.5 BIOM =  11726.7
  HRU     595 SUB  10 FRSD  Yld =  3455.4 BIOM =  11983.1
  HRU     596 SUB  10 FRSD  Yld =  3378.9 BIOM =  11717.8
  HRU     597 SUB  10 WILL  Yld =  5246.2 BIOM =  38420.0
  HRU     598 SUB  10 WILL  Yld =  5209.5 BIOM =  37745.9
  HRU     599 SUB  10 WILL  Yld =  5246.2 BIOM =  38409.0
  HRU     600 SUB  10 WILL  Yld =  5246.2 BIOM =  38415.9
  HRU     601 SUB  10 WILL  Yld =  5014.2 BIOM =  33791.7
  HRU     602 SUB  10 WILL  Yld =  5014.2 BIOM =  33792.0
  HRU     603 SUB  10 WILL  Yld =  5014.1 BIOM =  33790.6
  HRU     604 SUB  10 WILL  Yld =  5013.5 BIOM =  33770.7
  HRU     605 SUB  10 WILL  Yld =  5117.9 BIOM =  35868.7
  HRU     606 SUB  10 WILL  Yld =  5117.9 BIOM =  35870.2
  HRU     607 SUB  10 WILL  Yld =  5117.9 BIOM =  35876.6
  HRU     608 SUB  10 WILL  Yld =  5099.7 BIOM =  36280.5
  HRU     609 SUB  10 BERM  Yld =  1412.4 BIOM =  13057.2
  HRU     610 SUB  10 BERM  Yld =  1409.8 BIOM =  13059.8
  HRU     611 SUB  10 BERM  Yld =  1780.4 BIOM =  12630.1
  HRU     612 SUB  10 BERM  Yld =  1420.5 BIOM =  13049.1
  HRU     613 SUB  10 BERM  Yld =  1887.0 BIOM =  13024.8
  HRU     614 SUB  10 BERM  Yld =  1895.1 BIOM =  13019.2
  HRU     615 SUB  10 BERM  Yld =  1888.9 BIOM =  13023.5
  HRU     616 SUB  10 BERM  Yld =  2181.6 BIOM =  12724.6
  HRU     617 SUB  10 BERM  Yld =  2350.8 BIOM =  11981.4
  HRU     618 SUB  10 BERM  Yld =  1898.1 BIOM =  12492.6
  HRU     619 SUB  10 BERM  Yld =  1899.2 BIOM =  12491.7
  HRU     620 SUB  10 BERM  Yld =  1903.4 BIOM =  12488.3
  HRU     621 SUB  11 PAST  Yld =  3458.4 BIOM =   4958.7
  HRU     622 SUB  11 PAST  Yld =  3458.0 BIOM =   4958.1
  HRU     623 SUB  11 PAST  Yld =  3456.6 BIOM =   4956.0
  HRU     624 SUB  11 PAST  Yld =  3432.3 BIOM =   4921.2
  HRU     625 SUB  11 PAST  Yld =  2854.6 BIOM =   4093.0
  HRU     626 SUB  11 PAST  Yld =  2848.0 BIOM =   4083.5
  HRU     627 SUB  11 PAST  Yld =  2855.1 BIOM =   4093.7
  HRU     628 SUB  11 PAST  Yld =  2855.2 BIOM =   4093.9
  HRU     629 SUB  11 PAST  Yld =  1925.6 BIOM =   2760.7
  HRU     630 SUB  11 PAST  Yld =  1910.1 BIOM =   2738.5
  HRU     631 SUB  11 PAST  Yld =  1909.8 BIOM =   2738.1
  HRU     632 SUB  11 PAST  Yld =  1909.7 BIOM =   2738.0
  HRU     633 SUB  11 FRSD  Yld = 10256.5 BIOM =  14652.1
  HRU     634 SUB  11 FRSD  Yld =  8344.7 BIOM =  11920.9
  HRU     635 SUB  11 FRSD  Yld = 10250.4 BIOM =  14643.4
  HRU     636 SUB  11 FRSD  Yld = 10256.5 BIOM =  14652.1
  HRU     637 SUB  11 FRSD  Yld =  7001.4 BIOM =  10002.0
  HRU     638 SUB  11 FRSD  Yld =  6995.3 BIOM =   9993.3
  HRU     639 SUB  11 FRSD  Yld =  7730.8 BIOM =  11044.0
  HRU     640 SUB  11 FRSD  Yld =  6993.7 BIOM =   9991.0
  HRU     641 SUB  11 WILL  Yld =  9775.0 BIOM =  29522.6
  HRU     642 SUB  11 WILL  Yld =  9775.0 BIOM =  29520.8
  HRU     643 SUB  11 WILL  Yld =  9775.0 BIOM =  29515.0
  HRU     644 SUB  11 WILL  Yld =  9775.0 BIOM =  29413.9
  HRU     645 SUB  11 WILL  Yld =  9972.3 BIOM =  29139.4
  HRU     646 SUB  11 WILL  Yld =  9972.3 BIOM =  29140.4
  HRU     647 SUB  11 WILL  Yld =  9972.3 BIOM =  29136.1
  HRU     648 SUB  11 WILL  Yld =  9972.3 BIOM =  29088.8
  HRU     649 SUB  11 WILL  Yld =  8878.1 BIOM =  24357.8
  HRU     650 SUB  11 WILL  Yld =  8875.5 BIOM =  24336.6
  HRU     651 SUB  11 WILL  Yld =  8878.2 BIOM =  24358.8
  HRU     652 SUB  11 WILL  Yld =  8878.2 BIOM =  24359.2
  HRU     653 SUB  11 WATR  Yld =     0.0 BIOM =      0.0
  HRU     654 SUB  11 WATR  Yld =     0.0 BIOM =      0.0
  HRU     655 SUB  11 WATR  Yld =     0.0 BIOM =      0.0
  HRU     656 SUB  11 WATR  Yld =     0.0 BIOM =      0.0
  HRU     657 SUB  11 BERM  Yld = 14093.1 BIOM =  20171.9
  HRU     658 SUB  11 BERM  Yld = 14093.8 BIOM =  20173.0
  HRU     659 SUB  11 BERM  Yld = 14061.7 BIOM =  20126.8
  HRU     660 SUB  11 BERM  Yld = 14090.7 BIOM =  20168.5
  HRU     661 SUB  11 BERM  Yld = 14261.7 BIOM =  20414.4
  HRU     662 SUB  11 BERM  Yld = 14262.0 BIOM =  20414.9
  HRU     663 SUB  11 BERM  Yld = 14260.6 BIOM =  20412.9
  HRU     664 SUB  11 BERM  Yld = 14254.2 BIOM =  20403.7
  HRU     665 SUB  11 BERM  Yld = 11127.0 BIOM =  15834.7
  HRU     666 SUB  11 BERM  Yld = 11131.5 BIOM =  15841.4
  HRU     667 SUB  11 BERM  Yld = 11130.5 BIOM =  15839.8
  HRU     668 SUB  11 BERM  Yld = 11071.2 BIOM =  15751.4
  HRU     669 SUB  11 BERM  Yld =  8996.7 BIOM =  12801.6
  HRU     670 SUB  11 BERM  Yld =  8996.0 BIOM =  12800.6
  HRU     671 SUB  11 BERM  Yld =  8950.1 BIOM =  12734.7
  HRU     672 SUB  11 BERM  Yld =  8993.7 BIOM =  12797.3
  HRU     673 SUB  11 BERM  Yld =  9027.8 BIOM =  12781.4
  HRU     674 SUB  11 BERM  Yld =  9002.7 BIOM =  12745.0
  HRU     675 SUB  11 BERM  Yld =  9022.1 BIOM =  12773.0
  HRU     676 SUB  11 BERM  Yld =  6993.8 BIOM =   9872.2
  HRU     677 SUB  11 BERM  Yld =  7031.1 BIOM =   9865.9
  HRU     678 SUB  11 BERM  Yld =  7032.3 BIOM =   9867.7
  HRU     679 SUB  11 BERM  Yld =  6878.3 BIOM =   9647.4
  HRU     680 SUB  11 BERM  Yld =  7026.7 BIOM =   9859.5
  HRU     681 SUB  12 HAY   Yld =  9916.5 BIOM =  18035.7
  HRU     682 SUB  12 HAY   Yld =  9907.0 BIOM =  18013.0
  HRU     683 SUB  12 HAY   Yld =  9915.8 BIOM =  18034.6
  HRU     684 SUB  12 HAY   Yld =  9916.3 BIOM =  18035.5
  HRU     685 SUB  12 HAY   Yld =  9845.7 BIOM =  17906.9
  HRU     686 SUB  12 HAY   Yld =  9846.1 BIOM =  17907.6
  HRU     687 SUB  12 HAY   Yld =  9837.3 BIOM =  17895.0
  HRU     688 SUB  12 HAY   Yld =  9846.3 BIOM =  17907.8
  HRU     689 SUB  12 PAST  Yld =     7.4 BIOM =   7236.0
  HRU     690 SUB  12 PAST  Yld =     8.0 BIOM =   7126.7
  HRU     691 SUB  12 PAST  Yld =     7.4 BIOM =   7233.4
  HRU     692 SUB  12 PAST  Yld =     7.4 BIOM =   7236.7
  HRU     693 SUB  12 PAST  Yld =     8.6 BIOM =   7734.0
  HRU     694 SUB  12 PAST  Yld =     8.6 BIOM =   7735.4
  HRU     695 SUB  12 PAST  Yld =     9.7 BIOM =   7559.5
  HRU     696 SUB  12 PAST  Yld =     8.7 BIOM =   7729.2
  HRU     697 SUB  12 PAST  Yld =    20.3 BIOM =   6597.0
  HRU     698 SUB  12 PAST  Yld =    18.9 BIOM =   6687.5
  HRU     699 SUB  12 PAST  Yld =    18.9 BIOM =   6688.3
  HRU     700 SUB  12 PAST  Yld =    18.9 BIOM =   6684.6
  HRU     701 SUB  12 FRSD  Yld =  3785.8 BIOM =  13130.9
  HRU     702 SUB  12 FRSD  Yld =  3769.5 BIOM =  13074.6
  HRU     703 SUB  12 FRSD  Yld =  3785.7 BIOM =  13130.8
  HRU     704 SUB  12 FRSD  Yld =  3785.7 BIOM =  13130.8
  HRU     705 SUB  12 FRSD  Yld =  3706.6 BIOM =  12856.2
  HRU     706 SUB  12 FRSD  Yld =  3692.4 BIOM =  12806.9
  HRU     707 SUB  12 FRSD  Yld =  3706.6 BIOM =  12856.2
  HRU     708 SUB  12 FRSD  Yld =  3706.5 BIOM =  12856.0
  HRU     709 SUB  12 FRSD  Yld =  3684.5 BIOM =  12779.7
  HRU     710 SUB  12 FRSD  Yld =  3684.7 BIOM =  12780.2
  HRU     711 SUB  12 FRSD  Yld =  3685.8 BIOM =  12784.0
  HRU     712 SUB  12 FRSD  Yld =  3684.5 BIOM =  12779.6
  HRU     713 SUB  12 WILL  Yld =  5435.2 BIOM =  40006.2
  HRU     714 SUB  12 WILL  Yld =  5427.9 BIOM =  40052.4
  HRU     715 SUB  12 WILL  Yld =  5434.3 BIOM =  40009.9
  HRU     716 SUB  12 WILL  Yld =  5435.2 BIOM =  40007.3
  HRU     717 SUB  12 WILL  Yld =  5426.3 BIOM =  39093.4
  HRU     718 SUB  12 WILL  Yld =  5426.3 BIOM =  39478.9
  HRU     719 SUB  12 WILL  Yld =  5426.3 BIOM =  39109.5
  HRU     720 SUB  12 WILL  Yld =  5426.3 BIOM =  39091.2
  HRU     721 SUB  12 WILL  Yld =  5338.4 BIOM =  37451.1
  HRU     722 SUB  12 WILL  Yld =  5338.6 BIOM =  37450.5
  HRU     723 SUB  12 WILL  Yld =  5338.6 BIOM =  37450.7
  HRU     724 SUB  12 WILL  Yld =  5314.6 BIOM =  37388.4
  HRU     725 SUB  12 BERM  Yld =  1155.3 BIOM =  13624.1
  HRU     726 SUB  12 BERM  Yld =  1273.7 BIOM =  13530.4
  HRU     727 SUB  12 BERM  Yld =  1156.3 BIOM =  13623.5
  HRU     728 SUB  12 BERM  Yld =  1159.2 BIOM =  13621.5
  HRU     729 SUB  12 BERM  Yld =  1931.2 BIOM =  13197.9
  HRU     730 SUB  12 BERM  Yld =  1735.7 BIOM =  13401.8
  HRU     731 SUB  12 BERM  Yld =  1736.7 BIOM =  13400.7
  HRU     732 SUB  12 BERM  Yld =  1740.7 BIOM =  13396.6
  HRU     733 SUB  12 BERM  Yld =  2354.2 BIOM =  11983.9
  HRU     734 SUB  12 BERM  Yld =  2351.5 BIOM =  11987.8
  HRU     735 SUB  12 BERM  Yld =  2600.2 BIOM =  11615.0
  HRU     736 SUB  12 BERM  Yld =  2352.1 BIOM =  11986.9
  HRU     737 SUB  13 PAST  Yld =     1.9 BIOM =   5639.7
  HRU     738 SUB  13 PAST  Yld =     1.9 BIOM =   5638.4
  HRU     739 SUB  13 PAST  Yld =     1.9 BIOM =   5639.7
  HRU     740 SUB  13 PAST  Yld =     1.9 BIOM =   5639.5
  HRU     741 SUB  13 PAST  Yld =     1.0 BIOM =   1697.7
  HRU     742 SUB  13 PAST  Yld =     1.0 BIOM =   1698.4
  HRU     743 SUB  13 PAST  Yld =     1.0 BIOM =   1695.9
  HRU     744 SUB  13 PAST  Yld =     1.0 BIOM =   1698.6
  HRU     745 SUB  13 FRSD  Yld =  2698.2 BIOM =   9361.2
  HRU     746 SUB  13 FRSD  Yld =  2696.9 BIOM =   9356.5
  HRU     747 SUB  13 FRSD  Yld =  2698.2 BIOM =   9361.2
  HRU     748 SUB  13 FRSD  Yld =  2698.2 BIOM =   9361.2
  HRU     749 SUB  13 FRSD  Yld =  2633.8 BIOM =   9137.8
  HRU     750 SUB  13 FRSD  Yld =  2605.5 BIOM =   9039.4
  HRU     751 SUB  13 FRSD  Yld =  2605.7 BIOM =   9040.2
  HRU     752 SUB  13 FRSD  Yld =  2604.7 BIOM =   9036.6
  HRU     753 SUB  13 FRSD  Yld =  2901.0 BIOM =  10064.8
  HRU     754 SUB  13 FRSD  Yld =  2901.1 BIOM =  10065.0
  HRU     755 SUB  13 FRSD  Yld =  2899.5 BIOM =  10059.5
  HRU     756 SUB  13 FRSD  Yld =  2900.7 BIOM =  10063.6
  HRU     757 SUB  13 WILL  Yld =  4479.1 BIOM =  34297.3
  HRU     758 SUB  13 WILL  Yld =  4479.1 BIOM =  34297.4
  HRU     759 SUB  13 WILL  Yld =  4479.1 BIOM =  34294.6
  HRU     760 SUB  13 WILL  Yld =  4479.1 BIOM =  34296.9
  HRU     761 SUB  13 WILL  Yld =  2872.0 BIOM =  24810.8
  HRU     762 SUB  13 WILL  Yld =  2871.9 BIOM =  24810.2
  HRU     763 SUB  13 WILL  Yld =  2870.3 BIOM =  24801.9
  HRU     764 SUB  13 WILL  Yld =  2871.4 BIOM =  24807.8
  HRU     765 SUB  13 BERM  Yld =   173.0 BIOM =  12786.4
  HRU     766 SUB  13 BERM  Yld =   173.1 BIOM =  12783.2
  HRU     767 SUB  13 BERM  Yld =   173.0 BIOM =  12785.7
  HRU     768 SUB  13 BERM  Yld =   173.0 BIOM =  12786.3
  HRU     769 SUB  13 BERM  Yld =   388.4 BIOM =  11231.0
  HRU     770 SUB  13 BERM  Yld =   389.1 BIOM =  11225.4
  HRU     771 SUB  13 BERM  Yld =   388.4 BIOM =  11231.8
  HRU     772 SUB  13 BERM  Yld =   388.4 BIOM =  11231.6
  HRU     773 SUB  14 CORN  Yld =  3819.7 BIOM =  11205.2
  HRU     774 SUB  14 CORN  Yld =  3787.9 BIOM =  11112.8
  HRU     775 SUB  14 CORN  Yld =  3810.5 BIOM =  11178.6
  HRU     776 SUB  14 CORN  Yld =  3817.5 BIOM =  11199.0
  HRU     777 SUB  14 CORN  Yld =  4017.5 BIOM =  11795.2
  HRU     778 SUB  14 CORN  Yld =  4019.2 BIOM =  11800.4
  HRU     779 SUB  14 CORN  Yld =  4011.5 BIOM =  11777.8
  HRU     780 SUB  14 CORN  Yld =  3993.4 BIOM =  11724.8
  HRU     781 SUB  14 PAST  Yld =    13.1 BIOM =   8543.7
  HRU     782 SUB  14 PAST  Yld =    12.8 BIOM =   8576.2
  HRU     783 SUB  14 PAST  Yld =    12.8 BIOM =   8569.0
  HRU     784 SUB  14 PAST  Yld =    14.1 BIOM =   8452.2
  HRU     785 SUB  14 PAST  Yld =    12.1 BIOM =   8882.9
  HRU     786 SUB  14 PAST  Yld =    12.1 BIOM =   8877.6
  HRU     787 SUB  14 PAST  Yld =    12.5 BIOM =   8787.5
  HRU     788 SUB  14 PAST  Yld =    12.2 BIOM =   8856.8
  HRU     789 SUB  14 PAST  Yld =    15.9 BIOM =   7909.0
  HRU     790 SUB  14 PAST  Yld =    16.0 BIOM =   7902.2
  HRU     791 SUB  14 PAST  Yld =    20.4 BIOM =   7534.9
  HRU     792 SUB  14 PAST  Yld =    16.2 BIOM =   7879.5
  HRU     793 SUB  14 SOYB  Yld =  1399.7 BIOM =   6711.9
  HRU     794 SUB  14 SOYB  Yld =  1400.9 BIOM =   6717.4
  HRU     795 SUB  14 SOYB  Yld =  1401.2 BIOM =   6718.6
  HRU     796 SUB  14 SOYB  Yld =  1401.1 BIOM =   6718.3
  HRU     797 SUB  14 SOYB  Yld =  1392.0 BIOM =   6682.2
  HRU     798 SUB  14 SOYB  Yld =  1392.8 BIOM =   6685.5
  HRU     799 SUB  14 SOYB  Yld =  1392.6 BIOM =   6684.8
  HRU     800 SUB  14 SOYB  Yld =  1390.5 BIOM =   6675.5
  HRU     801 SUB  14 SOYB  Yld =  1408.2 BIOM =   6772.2
  HRU     802 SUB  14 SOYB  Yld =  1407.8 BIOM =   6770.4
  HRU     803 SUB  14 SOYB  Yld =  1408.1 BIOM =   6771.8
  HRU     804 SUB  14 SOYB  Yld =  1406.7 BIOM =   6766.0
  HRU     805 SUB  14 SWCH  Yld =     0.0 BIOM =      0.0
  HRU     806 SUB  14 SWCH  Yld =     0.0 BIOM =      0.0
  HRU     807 SUB  14 SWCH  Yld =     0.0 BIOM =      0.0
  HRU     808 SUB  14 SWCH  Yld =     0.0 BIOM =      0.0
  HRU     809 SUB  14 SWCH  Yld =     0.0 BIOM =      0.0
  HRU     810 SUB  14 SWCH  Yld =     0.0 BIOM =      0.0
  HRU     811 SUB  14 SWCH  Yld =     0.0 BIOM =      0.0
  HRU     812 SUB  14 SWCH  Yld =     0.0 BIOM =      0.0
  HRU     813 SUB  14 SWCH  Yld =     0.0 BIOM =      0.0
  HRU     814 SUB  14 SWCH  Yld =     0.0 BIOM =      0.0
  HRU     815 SUB  14 SWCH  Yld =     0.0 BIOM =      0.0
  HRU     816 SUB  14 SWCH  Yld =     0.0 BIOM =      0.0
  HRU     817 SUB  14 FRSD  Yld =  5726.3 BIOM =  13137.0
  HRU     818 SUB  14 FRSD  Yld =  5725.9 BIOM =  13136.4
  HRU     819 SUB  14 FRSD  Yld =  5717.9 BIOM =  13125.0
  HRU     820 SUB  14 FRSD  Yld =  5724.4 BIOM =  13134.2
  HRU     821 SUB  14 FRSD  Yld =  5703.7 BIOM =  13105.2
  HRU     822 SUB  14 FRSD  Yld =  5703.9 BIOM =  13105.5
  HRU     823 SUB  14 FRSD  Yld =  5700.4 BIOM =  13100.6
  HRU     824 SUB  14 FRSD  Yld =  5702.9 BIOM =  13104.2
  HRU     825 SUB  14 FRSD  Yld =  5623.7 BIOM =  12983.8
  HRU     826 SUB  14 FRSD  Yld =  5622.7 BIOM =  12982.4
  HRU     827 SUB  14 FRSD  Yld =  5623.9 BIOM =  12984.1
  HRU     828 SUB  14 FRSD  Yld =  5596.5 BIOM =  12945.0
  HRU     829 SUB  14 FRSE  Yld =  4325.7 BIOM =  15007.5
  HRU     830 SUB  14 FRSE  Yld =  4321.2 BIOM =  14992.0
  HRU     831 SUB  14 FRSE  Yld =  4324.9 BIOM =  15004.6
  HRU     832 SUB  14 FRSE  Yld =  4325.9 BIOM =  15008.3
  HRU     833 SUB  14 FRSE  Yld =  4292.6 BIOM =  14892.8
  HRU     834 SUB  14 FRSE  Yld =  4292.4 BIOM =  14891.9
  HRU     835 SUB  14 FRSE  Yld =  4291.5 BIOM =  14888.8
  HRU     836 SUB  14 FRSE  Yld =  4150.4 BIOM =  14399.4
  HRU     837 SUB  14 FRSE  Yld =  4266.7 BIOM =  14802.8
  HRU     838 SUB  14 FRSE  Yld =  4266.8 BIOM =  14803.3
  HRU     839 SUB  14 FRSE  Yld =  4266.2 BIOM =  14801.0
  HRU     840 SUB  14 FRSE  Yld =  4255.8 BIOM =  14765.2
  HRU     841 SUB  14 WETF  Yld = 11876.9 BIOM =  11876.9
  HRU     842 SUB  14 WETF  Yld = 11908.9 BIOM =  11908.9
  HRU     843 SUB  14 WETF  Yld = 11920.5 BIOM =  11920.5
  HRU     844 SUB  14 WETF  Yld = 11917.4 BIOM =  11917.4
  HRU     845 SUB  14 WETF  Yld = 12031.7 BIOM =  12031.7
  HRU     846 SUB  14 WETF  Yld = 12033.7 BIOM =  12033.7
  HRU     847 SUB  14 WETF  Yld = 12034.4 BIOM =  12034.4
  HRU     848 SUB  14 WETF  Yld = 12020.7 BIOM =  12020.7
  HRU     849 SUB  14 WATR  Yld =     0.0 BIOM =      0.0
  HRU     850 SUB  14 WATR  Yld =     0.0 BIOM =      0.0
  HRU     851 SUB  14 WATR  Yld =     0.0 BIOM =      0.0
  HRU     852 SUB  14 WATR  Yld =     0.0 BIOM =      0.0
  HRU     853 SUB  14 BERM  Yld = 10163.9 BIOM =  14444.8
  HRU     854 SUB  14 BERM  Yld = 10254.2 BIOM =  14576.7
  HRU     855 SUB  14 BERM  Yld = 10279.2 BIOM =  14613.1
  HRU     856 SUB  14 BERM  Yld = 10287.1 BIOM =  14624.6
  HRU     857 SUB  14 BERM  Yld = 10278.4 BIOM =  14596.8
  HRU     858 SUB  14 BERM  Yld = 10146.4 BIOM =  14407.8
  HRU     859 SUB  14 BERM  Yld = 10297.0 BIOM =  14623.8
  HRU     860 SUB  14 BERM  Yld = 10301.7 BIOM =  14630.7
  HRU     861 SUB  14 BERM  Yld =  9836.5 BIOM =  13947.2
  HRU     862 SUB  14 BERM  Yld =  9868.3 BIOM =  13993.9
  HRU     863 SUB  14 BERM  Yld =  9343.6 BIOM =  13220.0
  HRU     864 SUB  14 BERM  Yld =  9878.2 BIOM =  14008.5
  HRU     865 SUB  15 BARR  Yld =     0.0 BIOM =      0.2
  HRU     866 SUB  15 BARR  Yld =     0.0 BIOM =      0.2
  HRU     867 SUB  15 BARR  Yld =     0.0 BIOM =      0.2
  HRU     868 SUB  15 BARR  Yld =     0.0 BIOM =      0.2
  HRU     869 SUB  15 BARR  Yld =     0.0 BIOM =      0.0
  HRU     870 SUB  15 BARR  Yld =     0.0 BIOM =      0.0
  HRU     871 SUB  15 BARR  Yld =     0.0 BIOM =      0.0
  HRU     872 SUB  15 BARR  Yld =     0.0 BIOM =      0.0
  HRU     873 SUB  15 PAST  Yld =    12.3 BIOM =   1051.9
  HRU     874 SUB  15 PAST  Yld =    12.3 BIOM =   1051.9
  HRU     875 SUB  15 PAST  Yld =    12.3 BIOM =   1051.8
  HRU     876 SUB  15 PAST  Yld =    12.3 BIOM =   1051.9
  HRU     877 SUB  15 PAST  Yld =    21.5 BIOM =   1733.7
  HRU     878 SUB  15 PAST  Yld =    21.1 BIOM =   1697.9
  HRU     879 SUB  15 PAST  Yld =    21.1 BIOM =   1697.9
  HRU     880 SUB  15 PAST  Yld =    21.5 BIOM =   1734.2
  HRU     881 SUB  15 PAST  Yld =    10.5 BIOM =    320.0
  HRU     882 SUB  15 PAST  Yld =    10.5 BIOM =    319.8
  HRU     883 SUB  15 PAST  Yld =    10.6 BIOM =    321.2
  HRU     884 SUB  15 PAST  Yld =    10.5 BIOM =    320.0
  HRU     885 SUB  15 FRSD  Yld =  2571.2 BIOM =   8920.6
  HRU     886 SUB  15 FRSD  Yld =  2593.1 BIOM =   8996.4
  HRU     887 SUB  15 FRSD  Yld =  2590.6 BIOM =   8987.9
  HRU     888 SUB  15 FRSD  Yld =  2571.3 BIOM =   8920.7
  HRU     889 SUB  15 FRSD  Yld =   571.7 BIOM =   1983.3
  HRU     890 SUB  15 FRSD  Yld =   574.7 BIOM =   1994.0
  HRU     891 SUB  15 FRSD  Yld =   571.9 BIOM =   1984.2
  HRU     892 SUB  15 FRSD  Yld =   571.8 BIOM =   1983.9
  HRU     893 SUB  15 FRSE  Yld =  2082.3 BIOM =   7224.5
  HRU     894 SUB  15 FRSE  Yld =  2082.4 BIOM =   7224.5
  HRU     895 SUB  15 FRSE  Yld =  2092.3 BIOM =   7259.0
  HRU     896 SUB  15 FRSE  Yld =  2082.3 BIOM =   7224.5
  HRU     897 SUB  15 FRSE  Yld =   616.3 BIOM =   2138.3
  HRU     898 SUB  15 FRSE  Yld =   620.7 BIOM =   2153.3
  HRU     899 SUB  15 FRSE  Yld =   616.1 BIOM =   2137.5
  HRU     900 SUB  15 FRSE  Yld =   616.3 BIOM =   2138.1
  HRU     901 SUB  15 FRSE  Yld =     0.8 BIOM =      2.9
  HRU     902 SUB  15 FRSE  Yld =     0.8 BIOM =      2.9
  HRU     903 SUB  15 FRSE  Yld =     0.8 BIOM =      2.9
  HRU     904 SUB  15 FRSE  Yld =     0.8 BIOM =      2.9
  HRU     905 SUB  15 WILL  Yld =  2893.8 BIOM =  11470.3
  HRU     906 SUB  15 WILL  Yld =  2894.6 BIOM =  11470.6
  HRU     907 SUB  15 WILL  Yld =  2893.9 BIOM =  11470.3
  HRU     908 SUB  15 WILL  Yld =  2893.8 BIOM =  11470.3
  HRU     909 SUB  15 WILL  Yld =  4734.4 BIOM =  13542.1
  HRU     910 SUB  15 WILL  Yld =  4718.9 BIOM =  13522.8
  HRU     911 SUB  15 WILL  Yld =  4719.2 BIOM =  13523.1
  HRU     912 SUB  15 WILL  Yld =  4718.8 BIOM =  13522.7
  HRU     913 SUB  15 WILL  Yld =  5298.2 BIOM =  16860.3
  HRU     914 SUB  15 WILL  Yld =  5296.3 BIOM =  16853.8
  HRU     915 SUB  15 WILL  Yld =  5170.1 BIOM =  16641.0
  HRU     916 SUB  15 WILL  Yld =  5170.0 BIOM =  16640.7
  HRU     917 SUB  15 WILL  Yld =   770.2 BIOM =   6026.4
  HRU     918 SUB  15 WILL  Yld =   762.3 BIOM =   6014.7
  HRU     919 SUB  15 WILL  Yld =   762.1 BIOM =   6014.0
  HRU     920 SUB  15 WILL  Yld =   762.3 BIOM =   6014.6
  HRU     921 SUB  15 WATR  Yld =     0.0 BIOM =      0.0
  HRU     922 SUB  15 WATR  Yld =     0.0 BIOM =      0.0
  HRU     923 SUB  15 WATR  Yld =     0.0 BIOM =      0.0
  HRU     924 SUB  15 WATR  Yld =     0.0 BIOM =      0.0
  HRU     925 SUB  15 BERM  Yld = 12924.7 BIOM =  18485.1
  HRU     926 SUB  15 BERM  Yld = 12928.9 BIOM =  18491.2
  HRU     927 SUB  15 BERM  Yld = 12928.1 BIOM =  18490.0
  HRU     928 SUB  15 BERM  Yld = 12928.7 BIOM =  18490.9
  HRU     929 SUB  15 BERM  Yld = 10606.0 BIOM =  15131.3
  HRU     930 SUB  15 BERM  Yld = 10605.5 BIOM =  15130.6
  HRU     931 SUB  15 BERM  Yld = 10605.9 BIOM =  15131.2
  HRU     932 SUB  15 BERM  Yld = 10596.8 BIOM =  15117.8
  HRU     933 SUB  15 BERM  Yld =  8796.1 BIOM =  12395.6
  HRU     934 SUB  15 BERM  Yld =  8796.8 BIOM =  12396.7
  HRU     935 SUB  15 BERM  Yld =  8796.7 BIOM =  12396.5
  HRU     936 SUB  15 BERM  Yld =  8796.8 BIOM =  12396.6
  HRU     937 SUB  15 BERM  Yld =  7840.4 BIOM =  11022.5
  HRU     938 SUB  15 BERM  Yld =  7842.6 BIOM =  11025.7
  HRU     939 SUB  15 BERM  Yld =  7842.3 BIOM =  11025.2
  HRU     940 SUB  15 BERM  Yld =  7842.7 BIOM =  11025.8
  HRU     941 SUB  15 BERM  Yld =  7147.0 BIOM =  10051.5
  HRU     942 SUB  15 BERM  Yld =  7131.2 BIOM =  10028.7
  HRU     943 SUB  15 BERM  Yld =  7146.5 BIOM =  10050.7
  HRU     944 SUB  15 BERM  Yld =  7146.9 BIOM =  10051.3
  HRU     945 SUB  16 PAST  Yld =    23.4 BIOM =   7455.0
  HRU     946 SUB  16 PAST  Yld =    23.3 BIOM =   7459.6
  HRU     947 SUB  16 PAST  Yld =    25.2 BIOM =   7377.1
  HRU     948 SUB  16 PAST  Yld =    23.2 BIOM =   7460.9
  HRU     949 SUB  16 PAST  Yld =    78.0 BIOM =   6479.5
  HRU     950 SUB  16 PAST  Yld =    78.4 BIOM =   6478.9
  HRU     951 SUB  16 PAST  Yld =    80.1 BIOM =   6477.0
  HRU     952 SUB  16 PAST  Yld =    77.9 BIOM =   6479.7
  HRU     953 SUB  16 PAST  Yld =    44.1 BIOM =   6282.0
  HRU     954 SUB  16 PAST  Yld =    44.2 BIOM =   6281.1
  HRU     955 SUB  16 PAST  Yld =    45.6 BIOM =   6261.3
  HRU     956 SUB  16 PAST  Yld =    44.3 BIOM =   6278.1
  HRU     957 SUB  16 PAST  Yld =     9.0 BIOM =   6126.1
  HRU     958 SUB  16 PAST  Yld =     9.5 BIOM =   6083.6
  HRU     959 SUB  16 PAST  Yld =     9.1 BIOM =   6122.8
  HRU     960 SUB  16 PAST  Yld =     9.0 BIOM =   6125.4
  HRU     961 SUB  16 FRSD  Yld =  3855.3 BIOM =  13375.5
  HRU     962 SUB  16 FRSD  Yld =  3854.4 BIOM =  13372.6
  HRU     963 SUB  16 FRSD  Yld =  3829.2 BIOM =  13284.9
  HRU     964 SUB  16 FRSD  Yld =  3855.1 BIOM =  13374.9
  HRU     965 SUB  16 FRSD  Yld =  2967.2 BIOM =  10294.5
  HRU     966 SUB  16 FRSD  Yld =  2963.9 BIOM =  10282.8
  HRU     967 SUB  16 FRSD  Yld =  2966.6 BIOM =  10292.3
  HRU     968 SUB  16 FRSD  Yld =  2897.4 BIOM =  10052.1
  HRU     969 SUB  16 FRSD  Yld =  3485.1 BIOM =  12091.3
  HRU     970 SUB  16 FRSD  Yld =  3555.8 BIOM =  12336.6
  HRU     971 SUB  16 FRSD  Yld =  3556.3 BIOM =  12338.2
  HRU     972 SUB  16 FRSD  Yld =  3556.2 BIOM =  12337.9
  HRU     973 SUB  16 FRSD  Yld =  3944.2 BIOM =  13683.8
  HRU     974 SUB  16 FRSD  Yld =  3944.7 BIOM =  13685.5
  HRU     975 SUB  16 FRSD  Yld =  3944.8 BIOM =  13686.0
  HRU     976 SUB  16 FRSD  Yld =  3929.5 BIOM =  13633.0
  HRU     977 SUB  16 FRSD  Yld =  3045.0 BIOM =  10564.4
  HRU     978 SUB  16 FRSD  Yld =  3756.8 BIOM =  13033.8
  HRU     979 SUB  16 FRSD  Yld =  3749.9 BIOM =  13010.0
  HRU     980 SUB  16 FRSD  Yld =  3758.9 BIOM =  13041.2
  HRU     981 SUB  16 WILL  Yld =  9632.1 BIOM =  27721.4
  HRU     982 SUB  16 WILL  Yld =  9576.8 BIOM =  27574.9
  HRU     983 SUB  16 WILL  Yld =  9634.9 BIOM =  27730.1
  HRU     984 SUB  16 WILL  Yld =  9634.1 BIOM =  27727.8
  HRU     985 SUB  16 WILL  Yld =  8565.7 BIOM =  24754.8
  HRU     986 SUB  16 WILL  Yld =  8565.4 BIOM =  24752.3
  HRU     987 SUB  16 WILL  Yld =  8553.2 BIOM =  24710.4
  HRU     988 SUB  16 WILL  Yld =  8564.2 BIOM =  24746.6
  HRU     989 SUB  16 WILL  Yld =  6615.4 BIOM =  19705.4
  HRU     990 SUB  16 WILL  Yld =  6623.2 BIOM =  19729.3
  HRU     991 SUB  16 WILL  Yld =  6586.3 BIOM =  19622.3
  HRU     992 SUB  16 WILL  Yld =  6621.4 BIOM =  19723.5
  HRU     993 SUB  16 WILL  Yld =  8648.8 BIOM =  24451.2
  HRU     994 SUB  16 WILL  Yld =  8646.0 BIOM =  24436.0
  HRU     995 SUB  16 WILL  Yld =  8623.8 BIOM =  24358.3
  HRU     996 SUB  16 WILL  Yld =  8649.9 BIOM =  24456.1
  HRU     997 SUB  16 WILL  Yld = 10122.6 BIOM =  28146.4
  HRU     998 SUB  16 WILL  Yld = 10123.0 BIOM =  28148.0
  HRU     999 SUB  16 WILL  Yld = 10121.0 BIOM =  28139.6
  HRU    1000 SUB  16 WILL  Yld = 10074.2 BIOM =  28007.8
  HRU    1001 SUB  16 BERM  Yld = 13737.6 BIOM =  19660.4
  HRU    1002 SUB  16 BERM  Yld = 13773.8 BIOM =  19712.7
  HRU    1003 SUB  16 BERM  Yld = 13776.3 BIOM =  19716.2
  HRU    1004 SUB  16 BERM  Yld = 13776.9 BIOM =  19717.2
  HRU    1005 SUB  16 BERM  Yld = 11828.0 BIOM =  16902.7
  HRU    1006 SUB  16 BERM  Yld = 11829.0 BIOM =  16904.2
  HRU    1007 SUB  16 BERM  Yld = 11794.3 BIOM =  16853.6
  HRU    1008 SUB  16 BERM  Yld = 11824.2 BIOM =  16897.0
  HRU    1009 SUB  16 BERM  Yld = 11961.6 BIOM =  17062.3
  HRU    1010 SUB  16 BERM  Yld = 12016.0 BIOM =  17142.5
  HRU    1011 SUB  16 BERM  Yld = 12017.8 BIOM =  17145.2
  HRU    1012 SUB  16 BERM  Yld = 12018.3 BIOM =  17146.0
  HRU    1013 SUB  16 BERM  Yld =  6603.4 BIOM =   9280.2
  HRU    1014 SUB  16 BERM  Yld =  6602.5 BIOM =   9278.9
  HRU    1015 SUB  16 BERM  Yld =  6599.3 BIOM =   9274.2
  HRU    1016 SUB  16 BERM  Yld =  6581.3 BIOM =   9248.2
  HRU    1017 SUB  17 PAST  Yld =    19.5 BIOM =   4752.1
  HRU    1018 SUB  17 PAST  Yld =    19.6 BIOM =   4759.2
  HRU    1019 SUB  17 PAST  Yld =    19.8 BIOM =   4795.8
  HRU    1020 SUB  17 PAST  Yld =    19.5 BIOM =   4751.2
  HRU    1021 SUB  17 PAST  Yld =    20.1 BIOM =   2203.2
  HRU    1022 SUB  17 PAST  Yld =    20.1 BIOM =   2201.8
  HRU    1023 SUB  17 PAST  Yld =    20.6 BIOM =   2233.1
  HRU    1024 SUB  17 PAST  Yld =    20.2 BIOM =   2207.7
  HRU    1025 SUB  17 PAST  Yld =     0.7 BIOM =      1.7
  HRU    1026 SUB  17 PAST  Yld =     0.7 BIOM =      1.7
  HRU    1027 SUB  17 FRSD  Yld =  5255.0 BIOM =  12694.4
  HRU    1028 SUB  17 FRSD  Yld =  5356.8 BIOM =  12836.3
  HRU    1029 SUB  17 FRSD  Yld =  5257.0 BIOM =  12697.2
  HRU    1030 SUB  17 FRSD  Yld =  5254.5 BIOM =  12693.6
  HRU    1031 SUB  17 FRSD  Yld =  4106.9 BIOM =  10760.8
  HRU    1032 SUB  17 FRSD  Yld =  4106.1 BIOM =  10759.2
  HRU    1033 SUB  17 FRSD  Yld =  4105.9 BIOM =  10758.8
  HRU    1034 SUB  17 FRSD  Yld =  4126.0 BIOM =  10795.8
  HRU    1035 SUB  17 FRSE  Yld =  3066.6 BIOM =  10639.3
  HRU    1036 SUB  17 FRSE  Yld =  3102.7 BIOM =  10764.5
  HRU    1037 SUB  17 FRSE  Yld =  3064.5 BIOM =  10632.1
  HRU    1038 SUB  17 WATR  Yld =     0.0 BIOM =      0.0
  HRU    1039 SUB  17 WATR  Yld =     0.0 BIOM =      0.0
  HRU    1040 SUB  17 WATR  Yld =     0.0 BIOM =      0.0
  HRU    1041 SUB  17 WATR  Yld =     0.0 BIOM =      0.0
  HRU    1042 SUB  17 WATR  Yld =     0.0 BIOM =      0.0
  HRU    1043 SUB  17 WATR  Yld =     0.0 BIOM =      0.0
  HRU    1044 SUB  17 WATR  Yld =     0.0 BIOM =      0.0
  HRU    1045 SUB  17 WATR  Yld =     0.0 BIOM =      0.0
  HRU    1046 SUB  17 BERM  Yld = 12969.7 BIOM =  18572.6
  HRU    1047 SUB  17 BERM  Yld = 13032.9 BIOM =  18665.3
  HRU    1048 SUB  17 BERM  Yld = 12518.2 BIOM =  17921.2
  HRU    1049 SUB  17 BERM  Yld = 12513.5 BIOM =  17914.4
  HRU    1050 SUB  17 BERM  Yld = 12517.1 BIOM =  17919.6
  HRU    1051 SUB  17 BERM  Yld = 12441.4 BIOM =  17810.0
  HRU    1052 SUB  17 BERM  Yld = 12561.8 BIOM =  17975.0
  HRU    1053 SUB  17 BERM  Yld = 12559.6 BIOM =  17971.7
  HRU    1054 SUB  17 BERM  Yld = 12562.7 BIOM =  17976.4
  HRU    1055 SUB  17 BERM  Yld = 12460.0 BIOM =  17824.7
  HRU    1056 SUB  17 BERM  Yld = 11935.1 BIOM =  17074.0
  HRU    1057 SUB  17 BERM  Yld = 11899.7 BIOM =  17022.7
  HRU    1058 SUB  17 BERM  Yld = 11930.4 BIOM =  17067.2
  HRU    1059 SUB  17 BERM  Yld =  8394.7 BIOM =  11877.1
  HRU    1060 SUB  17 BERM  Yld =  8228.6 BIOM =  11637.2
  HRU    1061 SUB  17 BERM  Yld =  8399.4 BIOM =  11883.8
  HRU    1062 SUB  17 BERM  Yld =  8401.9 BIOM =  11887.3
  HRU    1063 SUB  17 BERM  Yld =  8308.8 BIOM =  11752.3
  HRU    1064 SUB  17 BERM  Yld =  8307.4 BIOM =  11750.2
  HRU    1065 SUB  17 BERM  Yld =  8303.8 BIOM =  11745.0
  HRU    1066 SUB  17 BERM  Yld =  8222.8 BIOM =  11627.3
  HRU    1067 SUB  18 PAST  Yld =    17.9 BIOM =   1219.2
  HRU    1068 SUB  18 PAST  Yld =    17.9 BIOM =   1219.2
  HRU    1069 SUB  18 PAST  Yld =    18.1 BIOM =   1222.7
  HRU    1070 SUB  18 PAST  Yld =    17.9 BIOM =   1219.3
  HRU    1071 SUB  18 PAST  Yld =    18.2 BIOM =   1873.9
  HRU    1072 SUB  18 PAST  Yld =    18.2 BIOM =   1873.8
  HRU    1073 SUB  18 PAST  Yld =    18.3 BIOM =   1873.2
  HRU    1074 SUB  18 PAST  Yld =    18.2 BIOM =   1873.9
  HRU    1075 SUB  18 PAST  Yld =    12.9 BIOM =   1860.2
  HRU    1076 SUB  18 PAST  Yld =    12.9 BIOM =   1861.1
  HRU    1077 SUB  18 PAST  Yld =    12.9 BIOM =   1860.0
  HRU    1078 SUB  18 PAST  Yld =    12.9 BIOM =   1860.0
  HRU    1079 SUB  18 FRSD  Yld =  1951.6 BIOM =   6771.0
  HRU    1080 SUB  18 FRSD  Yld =  1961.6 BIOM =   6805.5
  HRU    1081 SUB  18 FRSD  Yld =  1951.7 BIOM =   6771.2
  HRU    1082 SUB  18 FRSD  Yld =  1951.7 BIOM =   6771.2
  HRU    1083 SUB  18 FRSD  Yld =  1312.3 BIOM =   4552.7
  HRU    1084 SUB  18 FRSD  Yld =  1308.8 BIOM =   4540.6
  HRU    1085 SUB  18 FRSD  Yld =  1308.8 BIOM =   4540.6
  HRU    1086 SUB  18 FRSD  Yld =  1308.8 BIOM =   4540.7
  HRU    1087 SUB  18 FRSE  Yld =  2076.9 BIOM =   7205.5
  HRU    1088 SUB  18 FRSE  Yld =  2075.2 BIOM =   7199.8
  HRU    1089 SUB  18 FRSE  Yld =  2075.2 BIOM =   7199.7
  HRU    1090 SUB  18 FRSE  Yld =  2075.2 BIOM =   7199.8
  HRU    1091 SUB  18 FRSE  Yld =  1324.8 BIOM =   4596.1
  HRU    1092 SUB  18 FRSE  Yld =  1324.7 BIOM =   4596.1
  HRU    1093 SUB  18 FRSE  Yld =  1324.8 BIOM =   4596.1
  HRU    1094 SUB  18 FRSE  Yld =  1325.9 BIOM =   4600.1
  HRU    1095 SUB  18 FRSE  Yld =  2445.2 BIOM =   8483.4
  HRU    1096 SUB  18 FRSE  Yld =  2445.2 BIOM =   8483.2
  HRU    1097 SUB  18 FRSE  Yld =  2466.5 BIOM =   8557.4
  HRU    1098 SUB  18 FRSE  Yld =  2446.1 BIOM =   8486.6
  HRU    1099 SUB  18 WILL  Yld =  4620.3 BIOM =  13741.8
  HRU    1100 SUB  18 WILL  Yld =  4632.0 BIOM =  13757.2
  HRU    1101 SUB  18 WILL  Yld =  4619.9 BIOM =  13741.3
  HRU    1102 SUB  18 WILL  Yld =  4619.7 BIOM =  13741.1
  HRU    1103 SUB  18 WILL  Yld =  6005.1 BIOM =  18779.6
  HRU    1104 SUB  18 WILL  Yld =  6004.8 BIOM =  18779.0
  HRU    1105 SUB  18 WILL  Yld =  6005.2 BIOM =  18779.7
  HRU    1106 SUB  18 WILL  Yld =  6003.3 BIOM =  18775.5
  HRU    1107 SUB  18 WILL  Yld =  6200.8 BIOM =  18408.3
  HRU    1108 SUB  18 WILL  Yld =  6203.4 BIOM =  18412.1
  HRU    1109 SUB  18 WILL  Yld =  6201.2 BIOM =  18408.9
  HRU    1110 SUB  18 WILL  Yld =  6200.7 BIOM =  18408.1
  HRU    1111 SUB  18 BERM  Yld = 11549.4 BIOM =  16491.8
  HRU    1112 SUB  18 BERM  Yld = 11540.8 BIOM =  16479.3
  HRU    1113 SUB  18 BERM  Yld = 11549.8 BIOM =  16492.4
  HRU    1114 SUB  18 BERM  Yld = 11549.9 BIOM =  16492.5
  HRU    1115 SUB  18 BERM  Yld = 13438.5 BIOM =  19215.5
  HRU    1116 SUB  18 BERM  Yld = 13425.4 BIOM =  19196.6
  HRU    1117 SUB  18 BERM  Yld = 13438.3 BIOM =  19215.2
  HRU    1118 SUB  18 BERM  Yld = 13437.7 BIOM =  19214.3
  HRU    1119 SUB  18 BERM  Yld = 10184.5 BIOM =  14525.2
  HRU    1120 SUB  18 BERM  Yld = 10160.1 BIOM =  14489.3
  HRU    1121 SUB  18 BERM  Yld = 10184.2 BIOM =  14524.7
  HRU    1122 SUB  18 BERM  Yld = 10184.5 BIOM =  14525.1
  HRU    1123 SUB  18 BERM  Yld =  7044.2 BIOM =   9904.2
  HRU    1124 SUB  18 BERM  Yld =  7033.2 BIOM =   9889.3
  HRU    1125 SUB  18 BERM  Yld =  7033.9 BIOM =   9890.2
  HRU    1126 SUB  18 BERM  Yld =  7033.8 BIOM =   9890.0
  HRU    1127 SUB  18 BERM  Yld =  8155.4 BIOM =  11468.4
  HRU    1128 SUB  18 BERM  Yld =  8149.6 BIOM =  11460.0
  HRU    1129 SUB  18 BERM  Yld =  8155.7 BIOM =  11468.9
  HRU    1130 SUB  18 BERM  Yld =  8155.8 BIOM =  11469.0
  HRU    1131 SUB  18 BERM  Yld =  7806.4 BIOM =  10975.9
  HRU    1132 SUB  18 BERM  Yld =  7782.6 BIOM =  10941.4
  HRU    1133 SUB  18 BERM  Yld =  7806.3 BIOM =  10975.8
  HRU    1134 SUB  18 BERM  Yld =  7806.1 BIOM =  10975.4
  HRU    1135 SUB  19 PAST  Yld =     4.4 BIOM =   7315.0
  HRU    1136 SUB  19 PAST  Yld =    10.6 BIOM =   6959.1
  HRU    1137 SUB  19 PAST  Yld =     4.7 BIOM =   7356.2
  HRU    1138 SUB  19 PAST  Yld =     4.5 BIOM =   7329.8
  HRU    1139 SUB  19 PAST  Yld =     2.6 BIOM =   1544.6
  HRU    1140 SUB  19 PAST  Yld =     2.6 BIOM =   1543.1
  HRU    1141 SUB  19 PAST  Yld =     2.7 BIOM =   1549.8
  HRU    1142 SUB  19 PAST  Yld =     3.0 BIOM =   1579.5
  HRU    1143 SUB  19 PAST  Yld =     3.5 BIOM =   3937.0
  HRU    1144 SUB  19 PAST  Yld =     3.9 BIOM =   4017.2
  HRU    1145 SUB  19 PAST  Yld =     3.4 BIOM =   3923.4
  HRU    1146 SUB  19 PAST  Yld =     3.4 BIOM =   3919.0
  HRU    1147 SUB  19 FRSD  Yld =  3815.5 BIOM =  13231.6
  HRU    1148 SUB  19 FRSD  Yld =  3814.4 BIOM =  13227.7
  HRU    1149 SUB  19 FRSD  Yld =  3753.3 BIOM =  13015.6
  HRU    1150 SUB  19 FRSD  Yld =  3815.9 BIOM =  13232.9
  HRU    1151 SUB  19 FRSD  Yld =  3074.8 BIOM =  10661.7
  HRU    1152 SUB  19 FRSD  Yld =  3075.0 BIOM =  10662.2
  HRU    1153 SUB  19 FRSD  Yld =  3106.4 BIOM =  10771.3
  HRU    1154 SUB  19 FRSD  Yld =  3074.8 BIOM =  10661.5
  HRU    1155 SUB  19 WILL  Yld =  5280.8 BIOM =  36927.6
  HRU    1156 SUB  19 WILL  Yld =  5253.8 BIOM =  36714.3
  HRU    1157 SUB  19 WILL  Yld =  5280.8 BIOM =  36883.9
  HRU    1158 SUB  19 WILL  Yld =  5280.8 BIOM =  36872.2
  HRU    1159 SUB  19 WILL  Yld =  4307.1 BIOM =  28051.4
  HRU    1160 SUB  19 WILL  Yld =  4271.9 BIOM =  27987.3
  HRU    1161 SUB  19 WILL  Yld =  4269.2 BIOM =  27980.9
  HRU    1162 SUB  19 WILL  Yld =  4269.9 BIOM =  27982.2
  HRU    1163 SUB  19 WILL  Yld =  5154.5 BIOM =  33367.3
  HRU    1164 SUB  19 WILL  Yld =  5153.4 BIOM =  33348.0
  HRU    1165 SUB  19 WILL  Yld =  5154.6 BIOM =  33371.9
  HRU    1166 SUB  19 WILL  Yld =  5154.6 BIOM =  33258.2
  HRU    1167 SUB  19 WATR  Yld =     0.0 BIOM =      0.0
  HRU    1168 SUB  19 WATR  Yld =     0.0 BIOM =      0.0
  HRU    1169 SUB  19 WATR  Yld =     0.0 BIOM =      0.0
  HRU    1170 SUB  19 WATR  Yld =     0.0 BIOM =      0.0
  HRU    1171 SUB  19 WATR  Yld =     0.0 BIOM =      0.0
  HRU    1172 SUB  19 WATR  Yld =     0.0 BIOM =      0.0
  HRU    1173 SUB  19 WATR  Yld =     0.0 BIOM =      0.0
  HRU    1174 SUB  19 WATR  Yld =     0.0 BIOM =      0.0
  HRU    1175 SUB  19 WATR  Yld =     0.0 BIOM =      0.0
  HRU    1176 SUB  19 WATR  Yld =     0.0 BIOM =      0.0
  HRU    1177 SUB  19 WATR  Yld =     0.0 BIOM =      0.0
  HRU    1178 SUB  19 WATR  Yld =     0.0 BIOM =      0.0
  HRU    1179 SUB  19 WATR  Yld =     0.0 BIOM =      0.0
  HRU    1180 SUB  19 WATR  Yld =     0.0 BIOM =      0.0
  HRU    1181 SUB  19 WATR  Yld =     0.0 BIOM =      0.0
  HRU    1182 SUB  19 WATR  Yld =     0.0 BIOM =      0.0
  HRU    1183 SUB  19 BERM  Yld =  4429.6 BIOM =  15217.0
  HRU    1184 SUB  19 BERM  Yld =  3918.4 BIOM =  14462.5
  HRU    1185 SUB  19 BERM  Yld =  4396.4 BIOM =  15168.7
  HRU    1186 SUB  19 BERM  Yld =  4439.7 BIOM =  15231.7
  HRU    1187 SUB  19 BERM  Yld =  3796.9 BIOM =  14102.9
  HRU    1188 SUB  19 BERM  Yld =  3797.7 BIOM =  14104.2
  HRU    1189 SUB  19 BERM  Yld =  3770.6 BIOM =  14047.7
  HRU    1190 SUB  19 BERM  Yld =  3794.2 BIOM =  14098.2
  HRU    1191 SUB  19 BERM  Yld =  3864.7 BIOM =  14354.0
  HRU    1192 SUB  19 BERM  Yld =  3864.5 BIOM =  14353.6
  HRU    1193 SUB  19 BERM  Yld =  3804.9 BIOM =  14257.3
  HRU    1194 SUB  19 BERM  Yld =  3861.2 BIOM =  14348.5
  HRU    1195 SUB  19 BERM  Yld =  4309.6 BIOM =  15029.6
  HRU    1196 SUB  19 BERM  Yld =  3953.3 BIOM =  14503.4
  HRU    1197 SUB  19 BERM  Yld =  4340.0 BIOM =  15075.1
  HRU    1198 SUB  19 BERM  Yld =  4348.5 BIOM =  15087.5
  HRU    1199 SUB  19 BERM  Yld =  3896.8 BIOM =  14435.5
  HRU    1200 SUB  19 BERM  Yld =  3969.8 BIOM =  14541.5
  HRU    1201 SUB  19 BERM  Yld =  3959.7 BIOM =  14526.9
  HRU    1202 SUB  19 BERM  Yld =  3966.3 BIOM =  14536.5
  HRU    1203 SUB  19 BERM  Yld =  3716.3 BIOM =  13927.1
  HRU    1204 SUB  19 BERM  Yld =  3706.1 BIOM =  13904.6
  HRU    1205 SUB  19 BERM  Yld =  3716.3 BIOM =  13927.5
  HRU    1206 SUB  19 BERM  Yld =  3714.3 BIOM =  13923.2
  HRU    1207 SUB  19 BERM  Yld =  4010.4 BIOM =  14542.0
  HRU    1208 SUB  19 BERM  Yld =  3996.0 BIOM =  14518.9
  HRU    1209 SUB  19 BERM  Yld =  3935.3 BIOM =  14418.7
  HRU    1210 SUB  19 BERM  Yld =  4015.6 BIOM =  14550.1
  HRU    1211 SUB  19 BERM  Yld =  4263.1 BIOM =  14951.9
  HRU    1212 SUB  19 BERM  Yld =  3933.2 BIOM =  14457.1
  HRU    1213 SUB  19 BERM  Yld =  4234.3 BIOM =  14910.7
  HRU    1214 SUB  19 BERM  Yld =  4272.7 BIOM =  14966.0
  HRU    1215 SUB  19 BERM  Yld =  3881.6 BIOM =  14405.8
  HRU    1216 SUB  19 BERM  Yld =  3884.6 BIOM =  14410.3
  HRU    1217 SUB  19 BERM  Yld =  3788.8 BIOM =  14267.5
  HRU    1218 SUB  19 BERM  Yld =  3864.8 BIOM =  14381.0
  HRU    1219 SUB  19 BERM  Yld =  3637.2 BIOM =  13616.2
  HRU    1220 SUB  19 BERM  Yld =  3641.0 BIOM =  13670.6
  HRU    1221 SUB  19 BERM  Yld =  3640.3 BIOM =  13667.9
  HRU    1222 SUB  19 BERM  Yld =  3641.2 BIOM =  13671.5
  HRU    1223 SUB  19 BERM  Yld =  3851.5 BIOM =  14283.8
  HRU    1224 SUB  19 BERM  Yld =  3846.8 BIOM =  14276.8
  HRU    1225 SUB  19 BERM  Yld =  3840.3 BIOM =  14266.4
  HRU    1226 SUB  19 BERM  Yld =  3766.6 BIOM =  14155.0
  HRU    1227 SUB  19 BERM  Yld =  3101.8 BIOM =  13139.0
  HRU    1228 SUB  19 BERM  Yld =  3077.8 BIOM =  13103.1
  HRU    1229 SUB  19 BERM  Yld =  3105.9 BIOM =  13145.3
  HRU    1230 SUB  19 BERM  Yld =  2713.3 BIOM =  12557.3
  HRU    1231 SUB  19 BERM  Yld =  3920.4 BIOM =   9829.1
  HRU    1232 SUB  19 BERM  Yld =  3930.0 BIOM =  10066.6
  HRU    1233 SUB  19 BERM  Yld =  3929.8 BIOM =  10080.8
  HRU    1234 SUB  19 BERM  Yld =  3929.7 BIOM =  10077.4
  HRU    1235 SUB  19 BERM  Yld =  4234.3 BIOM =  10983.5
  HRU    1236 SUB  19 BERM  Yld =  4237.0 BIOM =  10952.3
  HRU    1237 SUB  19 BERM  Yld =  4283.2 BIOM =  10515.9
  HRU    1238 SUB  19 BERM  Yld =  4235.2 BIOM =  10977.4
  HRU    1239 SUB  20 PAST  Yld =     4.5 BIOM =   7334.6
  HRU    1240 SUB  20 PAST  Yld =     4.4 BIOM =   7322.2
  HRU    1241 SUB  20 PAST  Yld =    10.1 BIOM =   6982.9
  HRU    1242 SUB  20 PAST  Yld =     4.7 BIOM =   7359.4
  HRU    1243 SUB  20 PAST  Yld =     3.5 BIOM =   4563.1
  HRU    1244 SUB  20 PAST  Yld =     3.4 BIOM =   4552.2
  HRU    1245 SUB  20 PAST  Yld =     3.7 BIOM =   4612.3
  HRU    1246 SUB  20 PAST  Yld =     3.4 BIOM =   4554.3
  HRU    1247 SUB  20 PAST  Yld =     3.5 BIOM =   3943.8
  HRU    1248 SUB  20 PAST  Yld =     3.4 BIOM =   3925.6
  HRU    1249 SUB  20 PAST  Yld =     3.4 BIOM =   3929.6
  HRU    1250 SUB  20 PAST  Yld =     3.9 BIOM =   4016.8
  HRU    1251 SUB  20 FRSD  Yld =  3815.6 BIOM =  13231.6
  HRU    1252 SUB  20 FRSD  Yld =  3815.9 BIOM =  13232.8
  HRU    1253 SUB  20 FRSD  Yld =  3814.5 BIOM =  13227.8
  HRU    1254 SUB  20 FRSD  Yld =  3772.5 BIOM =  13082.2
  HRU    1255 SUB  20 FRSD  Yld =  3075.5 BIOM =  10664.0
  HRU    1256 SUB  20 FRSD  Yld =  3075.4 BIOM =  10663.8
[...]
   3918  55   NELLA      .540E+01   52.20  483.11    0.11    0.00   51.76    0.00    0.20 1225.00   10.64  230.67  813.11    0.00    0.03    0.02   11.12    3.78   10.64
   3919  55   HARTSELL   .146E+02   52.20  242.06    0.23    0.00   70.59    0.00    0.20 1225.00    8.47  245.62  825.48    0.02    0.12    0.06   11.12    3.78    8.47
   3920  55   HARTSELL   .310E+02   52.20  242.06    0.52    0.00   70.47    0.00    0.20 1225.00    8.41  249.66  825.10    0.08    0.35    0.17   11.11    3.78    8.41
   3921  55   HARTSELL   .141E+02   52.20  242.06    1.31    0.00   70.04    0.00    0.20 1225.00    8.17  263.33  823.72    0.23    1.10    0.41   11.09    3.77    8.17
   3922  55   HARTSELL   .631E+01   52.20  242.06    0.12    0.00   70.62    0.00    0.20 1225.00    8.50  244.36  825.60    0.01    0.05    0.02   11.12    3.78    8.50
   3923  55   NELLA      .510E+02   52.20  483.11    0.54    0.00    0.00    0.00    0.20 1225.00   10.19  173.71  896.81    0.03    0.11    0.08    0.62    0.00   10.19
   3924  55   NELLA      .606E+02   52.20  483.11    2.17    0.00    0.00    0.00    0.20 1225.00    9.58  194.11  892.52    0.11    0.46    0.21    0.64    0.00    9.58
   3925  55   NELLA      .160E+02   52.20  483.11    0.23    0.00    0.00    0.00    0.20 1225.00   10.32  169.74  897.59    0.01    0.04    0.03    0.61    0.00   10.32
   3926  55   NELLA      .130E+02   52.20  483.11    0.11    0.00    0.00    0.00    0.20 1225.00   10.37  168.53  897.83    0.00    0.01    0.01    0.61    0.00   10.37
   3927  55   HARTSELL   .267E+03   52.20  242.06    1.47    0.00    0.00    0.00    0.20 1225.00    8.12  220.07  881.98    0.12    0.59    0.18    0.24    0.00    8.12
   3928  55   HARTSELL   .373E+03   52.20  242.06    0.54    0.00    0.00    0.00    0.20 1225.00    8.28  206.78  883.92    0.03    0.18    0.08    0.23    0.00    8.28
   3929  55   HARTSELL   .136E+03   52.20  242.06    0.23    0.00    0.00    0.00    0.20 1225.00    8.32  203.08  884.43    0.01    0.06    0.03    0.23    0.00    8.33
   3930  55   HARTSELL   .553E+02   52.20  242.06    0.12    0.00    0.00    0.00    0.20 1225.00    8.35  201.98  884.58    0.00    0.02    0.01    0.23    0.00    8.35
   3931  55   ETOWAH     .787E+01   52.20  484.12    0.21    0.00    0.00    0.00    0.20 1225.00    9.76  233.89  812.06    0.02    0.12    0.10    7.37    1.54    9.76
   3932  55   ETOWAH     .189E+01   52.20  484.12    1.33    0.00    0.00    0.00    0.20 1225.00    9.12  253.72  808.57    0.20    1.18    0.62    7.35    1.53    9.12
   3933  55   ETOWAH     .662E+01   52.20  484.12    0.46    0.00    0.00    0.00    0.20 1225.00    9.62  237.83  811.37    0.07    0.33    0.24    7.36    1.54    9.62
   3934  55   ETOWAH     .133E+02   52.20  484.12    0.11    0.00    0.00    0.00    0.20 1225.00    9.81  232.61  812.30    0.01    0.05    0.04    7.37    1.54    9.81
   3935  55   NELLA      .293E+01   52.20  483.11    1.47    0.00    0.00    0.00    0.20 1225.00   10.01  249.16  812.90    0.15    1.24    0.43    7.37    1.54   10.01
   3936  55   NELLA      .639E+01   52.20  483.11    0.50    0.00    0.00    0.00    0.20 1225.00   10.46  233.86  815.82    0.05    0.35    0.16    7.38    1.54   10.46
   3937  55   NELLA      .570E+01   52.20  483.11    0.11    0.00    0.00    0.00    0.20 1225.00   10.64  228.78  816.78    0.01    0.05    0.02    7.39    1.54   10.64
   3938  55   NELLA      .466E+01   52.20  483.11    0.23    0.00    0.00    0.00    0.20 1225.00   10.59  230.05  816.52    0.02    0.13    0.06    7.39    1.54   10.59
   3939  55   HARTSELL   .164E+02   52.20  242.06    0.23    0.00    0.00    0.00    0.20 1225.00    8.32  240.00  834.61    0.03    0.21    0.08    7.14    1.49    8.32
   3940  55   HARTSELL   .372E+02   52.20  242.06    0.52    0.00    0.00    0.00    0.20 1225.00    8.28  244.11  834.14    0.09    0.60    0.22    7.14    1.49    8.28
   3941  55   HARTSELL   .163E+02   52.20  242.06    1.25    0.00    0.00    0.00    0.20 1225.00    8.13  257.16  832.60    0.25    1.84    0.50    7.13    1.49    8.14
   3942  55   HARTSELL   .705E+01   52.20  242.06    0.12    0.00    0.00    0.00    0.20 1225.00    8.35  238.73  834.75    0.01    0.09    0.03    7.14    1.49    8.35
   3943  55   ETOWAH     .227E+02   52.20  484.12    0.21    0.00    0.00    0.00    0.20 1225.00    9.79  199.84  853.95    0.01    0.03    0.04   15.52    0.00    9.79
   3944  55   ETOWAH     .235E+03   52.20  484.12    3.37    0.00    0.00    0.00    0.20 1225.00    0.05  407.83  793.15    0.01    1.51    0.01   16.35    0.00    0.05
   3945  55   ETOWAH     .342E+02   52.20  484.12    0.52    0.00    0.00    0.00    0.20 1225.00    9.65  204.28  852.98    0.03    0.08    0.11   15.59    0.00    9.65
   3946  55   ETOWAH     .447E+02   52.20  484.12    0.11    0.00    0.00    0.00    0.20 1225.00    9.84  198.62  854.24    0.00    0.01    0.02   15.50    0.00    9.84
   3947  55   NELLA      .577E+03   52.20  483.11    3.50    0.00    0.00    0.00    0.20 1225.00    0.17  370.05  807.35    0.01    1.66    0.03   16.37    0.00    0.17
   3948  55   NELLA      .183E+02   52.20  483.11    0.11    0.00    0.00    0.00    0.20 1225.00   10.54  197.56  854.62    0.00    0.01    0.01   16.02    0.00   10.54
   3949  55   NELLA      .182E+02   52.20  483.11    0.23    0.00    0.00    0.00    0.20 1225.00   10.49  198.73  854.36    0.01    0.03    0.03   16.04    0.00   10.50
   3950  55   NELLA      .743E+02   52.20  483.11    0.58    0.00    0.00    0.00    0.20 1225.00   10.36  203.05  853.38    0.03    0.10    0.09   16.09    0.00   10.36
   3951  55   HARTSELL   .540E+03   52.20  242.06    1.89    0.00    0.00    0.00    0.20 1225.00    7.78  288.95  846.72    0.08    1.96    0.13   13.91    0.00    7.78
   3952  55   HARTSELL   .818E+02   52.20  242.06    0.23    0.00    0.00    0.00    0.20 1225.00    8.44  215.97  864.40    0.01    0.06    0.03   12.64    0.00    8.44
   3953  55   HARTSELL   .338E+02   52.20  242.06    0.12    0.00    0.00    0.00    0.20 1225.00    8.47  214.69  864.67    0.00    0.02    0.01   12.61    0.00    8.47
   3954  55   HARTSELL   .295E+03   52.20  242.06    0.56    0.00    0.00    0.00    0.20 1225.00    8.39  220.46  863.44    0.03    0.19    0.08   12.74    0.00    8.39
   3955  55   TALBOTT    .521E+01   52.20  273.05    0.23    0.00    0.00    0.00    0.20 1225.00   17.67  243.39  817.34    0.09    0.13    0.20   12.97    0.00   17.67
   3956  55   TALBOTT    .722E+01   52.20  273.05    0.11    0.00    0.00    0.00    0.20 1225.00   17.73  239.88  817.70    0.03    0.04    0.08   12.97    0.00   17.73
   3957  55   TALBOTT    .168E+02   52.20  273.05    0.56    0.00    0.00    0.00    0.20 1225.00   17.47  254.08  816.23    0.33    0.38    0.61   12.99    0.00   17.47
   3958  55   TALBOTT    .427E+03   52.20  273.05    3.09    0.00    0.00    0.00    0.20 1225.00    8.18  592.32  678.56    1.74    2.00    2.22   14.60    0.00    8.18
   3959  55   NELLA      .280E+02   52.20  483.11    2.54    0.00    0.00    0.00    0.20 1225.00    3.83  258.81  879.79    0.05    1.18    0.09   20.32    0.00    3.83
   3960  55   NELLA      .978E+01   52.20  483.11    0.56    0.00    0.00    0.00    0.20 1225.00   10.21  171.30  900.07    0.02    0.10    0.07   19.17    0.00   10.21
   3961  55   NELLA      .167E+01   52.20  483.11    0.11    0.00    0.00    0.00    0.20 1225.00   10.47  165.86  901.18    0.00    0.01    0.01   19.07    0.00   10.47
   3962  55   NELLA      .278E+01   52.20  483.11    0.23    0.00    0.00    0.00    0.20 1225.00   10.40  167.11  900.92    0.01    0.03    0.02   19.10    0.00   10.40
   3963  55   HARTSELL   .358E+02   52.20  242.06    1.95    0.00    0.00    0.00    0.20 1225.00    8.21  212.05  896.98    0.16    0.70    0.20   14.25    0.00    8.21
   3964  55   HARTSELL   .275E+02   52.20  242.06    0.54    0.00    0.00    0.00    0.20 1225.00    8.40  194.52  899.89    0.04    0.18    0.08   13.68    0.00    8.40
   3965  55   HARTSELL   .807E+01   52.20  242.06    0.23    0.00    0.00    0.00    0.20 1225.00    8.44  190.50  900.47    0.01    0.06    0.02   13.56    0.00    8.44
   3966  55   HARTSELL   .304E+01   52.20  242.06    0.12    0.00    0.00    0.00    0.20 1225.00    8.47  189.32  900.65    0.00    0.02    0.01   13.52    0.00    8.47
   3967  55   ETOWAH     .182E+02   52.20  484.12    0.11    0.00    0.00    0.00    0.20 1225.00    8.63  192.37  865.04    0.00    0.02    0.02   27.11    9.44    8.63
   3968  55   ETOWAH     .142E+02   52.20  484.12    0.23    0.00    0.00    0.00    0.20 1225.00    8.48  193.83  864.80    0.01    0.05    0.04   27.11    9.44    8.48
   3969  55   ETOWAH     .769E+01   52.20  484.12    1.73    0.00    0.00    0.00    0.20 1225.00    6.83  217.32  861.34    0.09    0.54    0.20   27.09    9.44    6.84
   3970  55   ETOWAH     .154E+02   52.20  484.12    0.48    0.00    0.00    0.00    0.20 1225.00    8.12  197.88  864.18    0.03    0.13    0.10   27.10    9.44    8.12
   3971  55   NELLA      .810E+01   52.20  483.11    0.11    0.00    0.00    0.00    0.20 1225.00    9.41  191.10  865.76    0.00    0.02    0.01   27.22    9.48    9.41
   3972  55   NELLA      .252E+02   52.20  483.11    0.54    0.00    0.00    0.00    0.20 1225.00    8.95  196.57  864.81    0.03    0.15    0.07   27.21    9.48    8.95
   3973  55   NELLA      .902E+01   52.20  483.11    0.23    0.00    0.00    0.00    0.20 1225.00    9.29  192.38  865.53    0.01    0.05    0.02   27.22    9.48    9.29
   3974  55   NELLA      .239E+02   52.20  483.11    1.79    0.00    0.00    0.00    0.20 1225.00    7.81  213.72  862.38    0.09    0.59    0.18   27.32    9.48    7.81
   3975  55   HARTSELL   .237E+02   52.20  242.06    0.13    0.00    0.00    0.00    0.20 1225.00    8.52  206.81  874.42    0.01    0.04    0.01   20.46    5.94    8.52
   3976  55   HARTSELL   .159E+03   52.20  242.06    0.52    0.00    0.00    0.00    0.20 1225.00    8.21  212.17  873.42    0.04    0.26    0.08   20.61    6.04    8.21
   3977  55   HARTSELL   .600E+02   52.20  242.06    0.23    0.00    0.00    0.00    0.20 1225.00    8.50  207.92  874.20    0.01    0.09    0.03   20.49    5.96    8.50
   3978  55   HARTSELL   .104E+03   52.20  242.06    1.42    0.00    0.00    0.00    0.20 1225.00    7.29  227.39  870.42    0.12    0.86    0.17   21.03    6.31    7.29
   3979  55   WATER      .183E+01   52.20    7.37    1.65    0.00    0.00    0.00    0.20 1225.00    0.00    0.00 1199.32    0.00    0.00    0.00    0.00    0.00    0.00
   3980  55   WATER      .230E+03   52.20    7.37    0.07    0.00    0.00    0.00    0.20 1225.00    0.00    0.00 1199.32    0.00    0.00    0.00    0.00    0.00    0.00
   3981  55   WATER      .462E+01   52.20    7.37    0.21    0.00    0.00    0.00    0.20 1225.00    0.00    0.00 1199.32    0.00    0.00    0.00    0.00    0.00    0.00
   3982  55   WATER      .345E+01   52.20    7.37    0.46    0.00    0.00    0.00    0.20 1225.00    0.00    0.00 1199.32    0.00    0.00    0.00    0.00    0.00    0.00
   3983  55   ETOWAH     .869E+01   97.08  484.12    0.52    0.00  138.24    0.00    0.20 1225.00  834.13    2.47  503.53    0.78    1.13    1.37   15.00   10.52  834.13
   3984  55   ETOWAH     .546E+01   97.08  484.12    0.23    0.00  137.88    0.00    0.20 1225.00  834.14    0.83  504.77    0.67    1.22    1.56   15.02   10.53  834.14
   3985  55   ETOWAH     .555E+01   97.08  484.12    0.12    0.00  137.79    0.00    0.20 1225.00  834.15    0.33  505.16    0.62    1.20    1.50   15.03   10.53  834.15
   3986  55   ETOWAH     .116E+02   97.08  484.12    1.69    0.00  139.44    0.00    0.20 1225.00  833.86   31.15  482.43    1.09    1.78    1.58   14.64   10.27  833.86
   3987  55   NELLA      .113E+02   97.08  483.11    0.54    0.00  132.97    0.00    0.20 1225.00  834.72    2.12  493.30    0.76    0.96    1.13   15.07   10.57  834.72
   3988  55   NELLA      .400E+01   97.08  483.11    0.23    0.00  132.78    0.00    0.20 1225.00  834.73    0.69  494.37    0.66    1.24    1.78   15.09   10.58  834.73
   3989  55   NELLA      .272E+01   97.08  483.11    0.12    0.00  132.72    0.00    0.20 1225.00  834.73    0.28  494.69    0.61    1.40    2.16   15.10   10.59  834.73
   3990  55   NELLA      .175E+02   97.08  483.11    1.80    0.00  136.09    0.00    0.20 1225.00  834.53   27.38  474.07    0.98    1.54    1.20   14.74   10.34  834.53
   3991  55   HARTSELL   .307E+02   97.08  242.06    0.23    0.00  126.84    0.00    0.20 1225.00  826.11    0.53  451.71    0.68    0.57    0.65   13.55    9.54  826.11
   3992  55   HARTSELL   .772E+02   97.08  242.06    0.52    0.00  126.91    0.00    0.20 1225.00  826.09    1.56  450.83    0.79    0.49    0.53   13.53    9.53  826.09
   3993  55   HARTSELL   .140E+02   97.08  242.06    0.12    0.00  126.82    0.00    0.20 1225.00  826.12    0.21  451.99    0.62    0.70    0.92   13.55    9.54  826.12
   3994  55   HARTSELL   .477E+02   97.08  242.06    1.50    0.00  127.15    0.00    0.20 1225.00  826.01    5.60  447.38    1.06    0.60    0.84   13.47    9.49  826.01



                AVE MONTHLY BASIN VALUES
                   SNOW                      WATER               SED
  MON     RAIN     FALL   SURF Q    LAT Q    YIELD       ET    YIELD      PET
          (MM)     (MM)     (MM)     (MM)     (MM)     (MM)   (T/HA)     (MM)
    1    58.56    23.59     5.20     2.90     9.61    26.24     0.07    40.20
    2   119.71    35.85    20.21    12.04    41.81    37.62     0.56    50.25
    3    69.07     0.02     5.06     6.84    23.92    72.47     0.02   114.17
    4    59.05     0.13     3.28     4.09    15.07    80.23     0.02   148.20
    5   116.94     0.00     7.65     7.58    21.22    92.94     0.01   148.25
    6    87.37     0.00     4.69     6.46    17.29   104.26     0.00   146.78
    7   106.26     0.00     6.41     6.66    16.74   101.73     0.00   140.93
    8   140.17     0.00     9.89    10.42    25.33    91.74     0.01   120.59
    9    72.27     0.00     4.77     6.97    17.01    77.29     0.00   111.39
   10   114.74     0.00     7.39     8.17    20.12    60.74     0.01    90.00
   11   161.12     0.80    17.12    18.10    44.50    41.04     0.01    56.65
   12    87.26     4.24    10.68    16.73    51.40    25.95     0.01    37.52

     AVE ANNUAL BASIN STRESS DAYS
               WATER STRESS DAYS =    10.19
               TEMPERATURE STRESS DAYS =    47.22
               NITROGEN STRESS DAYS =    41.67
               PHOSPHORUS STRESS DAYS =     0.02
               AERATION STRESS DAYS =     0.06
1
    SWAT Jun 11 2014    VER 2012/Rev 627                                            

    General Input/Output section (file.cio):                                        
    11/15/2017 12:00:00 AM ARCGIS-SWAT interface AV                                 
                                                                                    
         AVE ANNUAL BASIN VALUES

              PRECIP =   1192.5 MM
              SNOW FALL =   64.63 MM
              SNOW MELT =    64.31 MM
              SUBLIMATION =     0.32 MM
              SURFACE RUNOFF Q =   102.36 MM
              LATERAL SOIL Q =  106.97 MM
              TILE Q =     0.00 MM
              GROUNDWATER (SHAL AQ) Q =    63.25 MM
              GROUNDWATER (DEEP AQ) Q =    32.01 MM
              REVAP (SHAL AQ => SOIL/PLANTS) =    4.63 MM
              DEEP AQ RECHARGE =    35.79 MM
              TOTAL AQ RECHARGE =  103.65 MM
              TOTAL WATER YLD =   304.02 MM
              PERCOLATION OUT OF SOIL =  137.09 MM
              ET =    812.2 MM
              PET =   1204.9MM
              TRANSMISSION LOSSES =     0.00 MM
              SEPTIC INFLOW =       0.00 MM
              TOTAL SEDIMENT LOADING =     0.713 T/HA
              TILE FROM IMPOUNDED WATER =     0.000 (MM)
              EVAPORATION FROM IMPOUNDED WATER =     0.000 (MM)
              SEEPAGE INTO SOIL FROM IMPOUNDED WATER =    0.000 (MM)
              OVERFLOW FROM IMPOUNDED WATER =    0.000 (MM)
1
    SWAT Jun 11 2014    VER 2012/Rev 627                                            

    General Input/Output section (file.cio):                                        
    11/15/2017 12:00:00 AM ARCGIS-SWAT interface AV                                 
                                                                                    
              AVE ANNUAL BASIN VALUES


              NUTRIENTS
                   ORGANIC N =     2.261 (KG/HA)
                   ORGANIC P =     0.064 (KG/HA)
                   NO3 YIELD (SQ) =     0.127 (KG/HA)
                   NO3 YIELD (LAT) =    0.772 (KG/HA)
                   NO3 YIELD (TILE) =    0.000 (KG/HA)
                   SOLP YIELD (TILE) =    0.000(KG/HA)
                   SOLP YIELD (SURF INLET RISER) =    0.000 (KG/HA)
                   SOL P YIELD =    0.157 (KG/HA)
                   NO3 LEACHED =     8.436 (KG/HA)
                   P LEACHED =     0.621 (KG/HA)
                   N UPTAKE =    38.314 (KG/HA)
                   P UPTAKE =    9.922 (KG/HA)
                   NO3 YIELD (GWQ) =     2.474 (KG/HA)
                   ACTIVE TO SOLUTION P FLOW =        -7.771 (KG/HA)
                   ACTIVE TO STABLE P FLOW =        -5.248 (KG/HA)
                   N FERTILIZER APPLIED =    14.150 (KG/HA)
                   P FERTILIZER APPLIED =     1.635 (KG/HA)
                   N FIXATION =     2.035 (KG/HA)
                   DENITRIFICATION =     2.312 (KG/HA)
                   HUMUS MIN ON ACTIVE ORG N =     4.363 (KG/HA)
                   ACTIVE TO STABLE ORG N =    -0.428 (KG/HA)
                   HUMUS MIN ON ACTIVE ORG P =    0.429 (KG/HA)
                   MIN FROM FRESH ORG N =   11.485 (KG/HA)
                   MIN FROM FRESH ORG P =    2.708 (KG/HA)
                   NO3 IN RAINFALL =     0.000 (KG/HA)
                   INITIAL NO3 IN SOIL =      53.229 (KG/HA)
                   FINAL NO3 IN SOIL =         6.603 (KG/HA)
                   INITIAL ORG N IN SOIL =    5196.471 (KG/HA)
                   FINAL ORG N IN SOIL =      5202.314 (KG/HA)
                   INITIAL MIN P IN SOIL =   14530.375 (KG/HA)
                   FINAL MIN P IN SOIL =     14505.343 (KG/HA)
                   INITIAL ORG P IN SOIL =     189.564 (KG/HA)
                   FINAL ORG P IN SOIL =     196.209 (KG/HA)
                   NO3 IN FERT =    14.150 (KG/HA)
                   AMMONIA IN FERT =     0.000 (KG/HA)
                   ORG N IN FERT =     0.000 (KG/HA)
                   MINERAL P IN FERT =     1.635 (KG/HA)
                   ORG P IN FERT =     0.000 (KG/HA)
                   N REMOVED IN YIELD =    17.150 (KG/HA)
                   P REMOVED IN YIELD =     3.529 (KG/HA)
                   AMMONIA VOLATILIZATION =     0.000 (KG/HA)
                   AMMONIA NITRIFICATION =      0.000 (KG/HA)
                   NO3 EVAP-LAYER 2 TO 1 =    2.266

                   DIE-GRO P Q =       0.0 (No/HA)
                   DIE-GRO LP Q =       0.0 (No/HA)
                   DIE-GRO P SED =      0.0 (No/HA)
                   DIE-GRO LP SED =      0.0 (No/HA)
                   BACT P RUNOFF =      0.0 (No/HA)
                   BACT LP RUNOFF =      0.0 (No/HA)
                   BACT P SEDIMENT =      0.0 (No/HA)
                   BACT LP SEDIMENT =      0.0 (No/HA)
                   BACT P INCORP =      0.0 (No/HA)
                   BACT LP INCORP =      0.0 (No/HA)

                   NITRATE SEPTIC =         0.00 (kg/ha)
                   AMMONIA SEPTIC =         0.00 (kg/ha)
                   ORG N SEPTIC =         0.00 (kg/ha)
                   FRESH ORGN SEPTIC =         0.00 (kg/ha)
                   ORG P SEPTIC =         0.00 (kg/ha)
                   FRESH ORGP SEPTIC =         0.00 (kg/ha)
                   SOL P SEPTIC =         0.00 (kg/ha)
                   BOD SEPTIC =         0.00 (kg/ha)
